
#=======================================================================
data_global
#=======================================================================

_audit_creation_method                   'Jana2020 1.3.44'


# 1. PROCESSING SUMMARY (IUCr Office Use Only)

_journal_date_recd_electronic            ?
_journal_date_to_coeditor                ?
_journal_date_from_coeditor              ?
_journal_date_accepted                   ?
_journal_date_printers_first             ?
_journal_date_printers_final             ?
_journal_date_proofs_out                 ?
_journal_date_proofs_in                  ?
_journal_coeditor_name                   ?
_journal_coeditor_code                   ?
_journal_coeditor_notes
; ?
;
_journal_techeditor_code                 ?
_journal_paper_category                  ?
_journal_techeditor_notes
; ?
;
_journal_coden_ASTM                      ?
_journal_name_full                       'Acta Crystallographica Section C'
_journal_year                            ?
_journal_volume                          ?
_journal_issue                           ?
_journal_page_first                      ?
_journal_page_last                       ?
_journal_suppl_publ_number               ?
_journal_suppl_publ_pages                ?

#=======================================================================

# 2. SUBMISSION DETAILS

_publ_contact_author_name                ?
_publ_contact_author_address
; ?
;
_publ_contact_author_email               ?
_publ_contact_author_fax                 ?
_publ_contact_author_phone               ?

_publ_requested_journal                  'Acta Crystallographica Section C'
_publ_requested_category                 ?

_publ_contact_letter
; ?
;

#=======================================================================

# 3. TITLE AND AUTHOR LIST

_publ_section_title
; ?
;
_publ_section_title_footnote
; ?
;
loop_
 _publ_author_name
 _publ_author_footnote
 _publ_author_address
; ?      # name
;
; ?      # footnote
;
; ?      # address
;

#=======================================================================

# 4. TEXT

_publ_section_synopsis
; ?
;
_publ_section_abstract
; ?
;
_publ_section_comment
; ?
;
_publ_section_introduction
; ?
;
_publ_section_experimental
; ?
;
_publ_section_exptl_prep
; ?
;
_publ_section_exptl_refinement
; ?
;
_publ_section_exptl_solution
; ?
;
_publ_section_discussion
; ?
;
_publ_section_acknowledgements
; ?
;
_publ_section_references
;
;
_publ_section_figure_captions
; ?
;
_publ_section_table_legends
; ?
;

#=======================================================================
data_I
#=======================================================================

# 5. CHEMICAL DATA

_chemical_name_systematic
; ?
;
_chemical_name_common                    ?
_chemical_formula_moiety                 ?
_chemical_formula_structural             ?
_chemical_formula_analytical             ?
_chemical_formula_iupac                  ?
_chemical_formula_sum                    'C15 H9 Br1 N1 O3 Rh1'
_chemical_formula_weight                 434.1
_chemical_melting_point                  ?
_chemical_compound_source                ?
_chemical_absolute_configuration         .

#=======================================================================

# 6. CRYSTAL DATA

_symmetry_cell_setting                   monoclinic
_symmetry_space_group_name_H-M           'P 1 21/n 1'
_symmetry_space_group_name_Hall          '-P 2yabc'
_symmetry_Int_Tables_number              14

loop_
 _space_group_symop_id
 _space_group_symop_operation_xyz
 1   x,y,z
 2   -x+1/2,y+1/2,-z+1/2
 3   -x,-y,-z
 4   x+1/2,-y+1/2,z+1/2

_cell_length_a                           8.8807(9)
_cell_length_b                           15.1873(15)
_cell_length_c                           10.9202(11)
_cell_angle_alpha                        90
_cell_angle_beta                         106.098(4)
_cell_angle_gamma                        90
_cell_volume                             1415.1(2)

loop_
 _twin_individual_id
 _twin_individual_mass_fraction_refined
 _twin_individual_twin_matrix_11
 _twin_individual_twin_matrix_12
 _twin_individual_twin_matrix_13
 _twin_individual_twin_matrix_21
 _twin_individual_twin_matrix_22
 _twin_individual_twin_matrix_23
 _twin_individual_twin_matrix_31
 _twin_individual_twin_matrix_32
 _twin_individual_twin_matrix_33
 ? ? ? ? ? ? ? ? ? ? ?

_cell_formula_units_Z                    4

_cell_measurement_reflns_used            ?
_cell_measurement_theta_min              ?
_cell_measurement_theta_max              ?
_cell_measurement_temperature            293
_cell_special_details
; ?
;

_exptl_crystal_density_diffrn            2.0373
_exptl_crystal_density_meas              ?
_exptl_crystal_density_method            ?
_exptl_crystal_F_000                     840

_exptl_absorpt_coefficient_mu            4.038
_exptl_crystal_description               ?
_exptl_crystal_size_max                  ?
_exptl_crystal_size_mid                  ?
_exptl_crystal_size_min                  ?
_exptl_crystal_size_rad                  ?
_exptl_crystal_colour                    ?
_exptl_absorpt_correction_type           ?
_exptl_absorpt_process_details           ?
_exptl_absorpt_correction_T_min          ?
_exptl_absorpt_correction_T_max          ?
loop_
 _exptl_crystal_face_index_h
 _exptl_crystal_face_index_k
 _exptl_crystal_face_index_l
 _exptl_crystal_face_perp_dist
 ? ? ? ?

#=======================================================================

# 7. EXPERIMENTAL DATA

_exptl_special_details                   ?

_diffrn_ambient_temperature              293
_diffrn_source                           ?
_diffrn_source_power                     ?
_diffrn_source_voltage                   ?
_diffrn_source_current                   ?
_diffrn_radiation_type                   'Mo K\a'
_diffrn_radiation_source                 'X-ray tube'
_diffrn_radiation_wavelength             0.71073
_diffrn_radiation_monochromator          ?
_diffrn_measurement_device               ?
_diffrn_measurement_device_type          ?
_diffrn_detector                         ?
_diffrn_detector_area_resol_mean         ?
_diffrn_measurement_method               ?
_diffrn_measurement_specimen_support     ?

_diffrn_reflns_number                    65380
_diffrn_reflns_theta_min                 2.63
_diffrn_reflns_theta_max                 28.34
_diffrn_reflns_theta_full                28.34
_diffrn_measured_fraction_theta_max      1
_diffrn_measured_fraction_theta_full     1
_diffrn_reflns_av_R_equivalents          0.0543
_diffrn_reflns_av_unetI/netI             0.0181
_diffrn_reflns_limit_h_min               -11
_diffrn_reflns_limit_h_max               11
_diffrn_reflns_limit_k_min               -20
_diffrn_reflns_limit_k_max               20
_diffrn_reflns_limit_l_min               -14
_diffrn_reflns_limit_l_max               14
_diffrn_reflns_reduction_process         ?

_diffrn_standards_number                 ?
_diffrn_standards_interval_count         ?
_diffrn_standards_interval_time          ?
_diffrn_standards_decay_%                ?
loop_
_diffrn_standard_refln_index_h
_diffrn_standard_refln_index_k
_diffrn_standard_refln_index_l
  ? ? ?

_diffrn_radiation_probe                  X-ray

#=======================================================================

# 8. REFINEMENT DATA

_refine_special_details
; ?
;

_reflns_number_total                     3518
_reflns_number_gt                        3310
_reflns_threshold_expression             'I>2\s(I)'

_refine_ls_structure_factor_coef         Fsqd
_refine_ls_R_factor_gt                   0.0209
_refine_ls_wR_factor_gt                  0.0669
_refine_ls_R_factor_all                  0.0231
_refine_ls_wR_factor_ref                 0.0676
_refine_ls_goodness_of_fit_ref           1.4303
_refine_ls_goodness_of_fit_gt            1.4594
_refine_ls_restrained_S_gt               ?
_refine_ls_restrained_S_all              ?
_refine_ls_number_reflns                 3518
_refine_ls_number_parameters             1
_refine_ls_number_restraints             0
_refine_ls_number_constraints            225
_refine_ls_weighting_scheme              sigma
_refine_ls_weighting_details             'calc w=1/[\s^2^(Fo^2^)+(0.0334P)^2^+0.0000P] where P=(Fo^2^+2Fc^2^)/3'
_refine_ls_hydrogen_treatment            'constr'
_refine_ls_shift/su_max                  0.0005
_refine_ls_shift/su_mean                 0.0005
_refine_diff_density_max                 ?
_refine_diff_density_min                 ?
_refine_ls_extinction_method             'none'
_refine_ls_extinction_coef               ?
_refine_ls_extinction_expression         ?
_refine_ls_abs_structure_details         ?
_refine_ls_abs_structure_Flack           ?
_refine_ls_abs_structure_Rogers          ?

loop_
 _atom_type_symbol
 _atom_type_scat_dispersion_real
 _atom_type_scat_dispersion_imag
 _atom_type_scat_source
 _atom_type_scat_Cromer_Mann_a1
 _atom_type_scat_Cromer_Mann_b1
 _atom_type_scat_Cromer_Mann_a2
 _atom_type_scat_Cromer_Mann_b2
 _atom_type_scat_Cromer_Mann_a3
 _atom_type_scat_Cromer_Mann_b3
 _atom_type_scat_Cromer_Mann_a4
 _atom_type_scat_Cromer_Mann_b4
 _atom_type_scat_Cromer_Mann_c
 C    0.0033  0.0016
 'International Tables Vol C tables 4.2.6.8 and 6.1.1.4'
2.31 20.843901 1.02 10.2075 1.5886 0.5687 0.865 51.651199 0.2156
 H    0.0000  0.0000
 'International Tables Vol C tables 4.2.6.8 and 6.1.1.4'
0.493002 10.5109 0.322912 26.1257 0.140191 3.14236 0.04081 57.799702 0.003038
 Br  -0.2901  2.4595
 'International Tables Vol C tables 4.2.6.8 and 6.1.1.4'
17.1789 2.1723 5.2358 16.579599 5.6377 0.2609 3.9851 41.4328 2.9557
 N    0.0061  0.0033
 'International Tables Vol C tables 4.2.6.8 and 6.1.1.4'
12.2126 0.0057 3.1322 9.8933 2.0125 28.997499 1.1663 0.5826 -11.529
 O    0.0106  0.0060
 'International Tables Vol C tables 4.2.6.8 and 6.1.1.4'
3.0485 13.2771 2.2868 5.7011 1.5463 0.3239 0.867 32.908901 0.2508
 Rh  -1.1178  0.9187
 'International Tables Vol C tables 4.2.6.8 and 6.1.1.4'
19.2957 0.751536 14.3501 8.21758 4.73425 25.874901 1.28918 98.606201 5.328

_computing_data_collection               ?
_computing_cell_refinement               ?
_computing_data_reduction                ?
_computing_structure_solution            ?
_computing_structure_refinement          ?
_computing_molecular_graphics            ?
_computing_publication_material          ?

loop_
 _restr_distance_atom_site_label_1
 _restr_distance_site_symmetry_1
 _restr_distance_atom_site_label_2
 _restr_distance_site_symmetry_2
 _restr_distance_target
 _restr_distance_target_weight_param
 ? ? ? ? ? ?

loop_
 _restr_angle_atom_site_label_1
 _restr_angle_site_symmetry_1
 _restr_angle_atom_site_label_2
 _restr_angle_site_symmetry_2
 _restr_angle_atom_site_label_3
 _restr_angle_site_symmetry_3
 _restr_angle_target
 _restr_angle_target_weight_param
 ? ? ? ? ? ? ? ?

loop_
 _restr_torsion_atom_site_label_1
 _restr_torsion_site_symmetry_1
 _restr_torsion_atom_site_label_2
 _restr_torsion_site_symmetry_2
 _restr_torsion_atom_site_label_3
 _restr_torsion_site_symmetry_3
 _restr_torsion_atom_site_label_4
 _restr_torsion_site_symmetry_4
 _restr_torsion_angle_target
 _restr_torsion_weight_param
 ? ? ? ? ? ? ? ? ? ?

loop_
 _restr_equal_distance_atom_site_label_1
 _restr_equal_distance_site_symmetry_1
 _restr_equal_distance_atom_site_label_2
 _restr_equal_distance_site_symmetry_2
 _restr_equal_distance_class_class_id
 _restr_equal_distance_class_target_weight_param
 ? ? ? ? ? ?

loop_
 _restr_equal_angle_atom_site_label_1
 _restr_equal_angle_site_symmetry_1
 _restr_equal_angle_atom_site_label_2
 _restr_equal_angle_site_symmetry_2
 _restr_equal_angle_atom_site_label_3
 _restr_equal_angle_site_symmetry_3
 _restr_equal_angle_class_class_id
 _restr_equal_angle_class_target_weight_param
 ? ? ? ? ? ? ? ?

loop_
 _restr_equal_torsion_atom_site_label_1
 _restr_equal_torsion_site_symmetry_1
 _restr_equal_torsion_atom_site_label_2
 _restr_equal_torsion_site_symmetry_2
 _restr_equal_torsion_atom_site_label_3
 _restr_equal_torsion_site_symmetry_3
 _restr_equal_torsion_atom_site_label_4
 _restr_equal_torsion_site_symmetry_4
 _restr_equal_torsion_class_class_id
 _restr_equal_torsion_class_target_weight_param
 ? ? ? ? ? ? ? ? ? ?


#=======================================================================

# 9. ATOMIC COORDINATES AND DISPLACEMENT PARAMETERS

loop_
 _atom_site_label
 _atom_site_type_symbol
 _atom_site_fract_x
 _atom_site_fract_y
 _atom_site_fract_z
 _atom_site_adp_type
 _atom_site_U_iso_or_equiv
 _atom_site_site_symmetry_multiplicity
 _atom_site_occupancy
 _atom_site_calc_flag
 _atom_site_refinement_flags
 _atom_site_disorder_assembly
 _atom_site_disorder_group
  Rh1 Rh 0.48149 0.465778 0.642312 Uani 0.0147 4 1 d . . .
  Br1 Br 1.321785 0.557739 0.947452 Uani 0.0216 4 1 d . . .
  O3 O 0.288632 0.541299 0.580554 Uani 0.0183 4 1 d . . .
  O1 O 0.294114 0.30848 0.524218 Uani 0.0307 4 1 d . . .
  N1 N 0.612647 0.575891 0.720547 Uani 0.0149 4 1 d . . .
  O2 O 0.732725 0.334906 0.746915 Uani 0.037 4 1 d . . .
  C8 C 0.391115 0.680155 0.673591 Uani 0.016 4 1 d . . .
  C9 C 0.550873 0.65313 0.72533 Uani 0.0168 4 1 d . . .
  C3 C 0.270523 0.624592 0.602033 Uani 0.016 4 1 d . . .
  C4 C 0.120125 0.661832 0.551745 Uani 0.0214 4 1 d . . .
  C15 C 0.871634 0.528927 0.709317 Uani 0.0171 4 1 d . . .
  C13 C 1.101261 0.563814 0.877569 Uani 0.0171 4 1 d . . .
  C14 C 1.033347 0.525146 0.760455 Uani 0.0175 4 1 d . . .
  C11 C 0.849549 0.609151 0.893893 Uani 0.0182 4 1 d . . .
  C10 C 0.779415 0.570949 0.776006 Uani 0.0151 4 1 d . . .
  C1 C 0.361484 0.367887 0.56874 Uani 0.0205 4 1 d . . .
  C7 C 0.356596 0.769086 0.694486 Uani 0.02 4 1 d . . .
  C12 C 1.011296 0.605597 0.945479 Uani 0.0198 4 1 d . . .
  C5 C 0.090202 0.748006 0.574301 Uani 0.0236 4 1 d . . .
  C2 C 0.641313 0.387296 0.706401 Uani 0.0231 4 1 d . . .
  C6 C 0.208526 0.802631 0.647004 Uani 0.0232 4 1 d . . .
  H9 H 0.621686 0.697923 0.769335 Uiso 0.0202 4 1 d . . .
  H4 H 0.037157 0.62602 0.500706 Uiso 0.0257 4 1 d . . .
  H15 H 0.823512 0.50255 0.627976 Uiso 0.0205 4 1 d . . .
  H14 H 1.097309 0.495997 0.714985 Uiso 0.0209 4 1 d . . .
  H11 H 0.785946 0.638111 0.939853 Uiso 0.0218 4 1 d . . .
  H7 H 0.438629 0.806618 0.742906 Uiso 0.024 4 1 d . . .
  H12 H 1.059868 0.631707 1.026925 Uiso 0.0238 4 1 d . . .
  H5 H -0.013452 0.77123 0.539716 Uiso 0.0283 4 1 d . . .
  H6 H 0.186311 0.862663 0.663357 Uiso 0.0278 4 1 d . . .

loop_
 _atom_site_aniso_label
 _atom_site_aniso_type_symbol
 _atom_site_aniso_U_11
 _atom_site_aniso_U_22
 _atom_site_aniso_U_33
 _atom_site_aniso_U_12
 _atom_site_aniso_U_13
 _atom_site_aniso_U_23
 Rh1 Rh 0.01163 0.01427 0.01716 0.00002 0.0022 -0.00152
 Br1 Br 0.01128 0.0225 0.02747 -0.00238 -0.00072 0.00111
 O3 O 0.01409 0.01764 0.02154 0.00257 0.00239 -0.00301
 O1 O 0.03025 0.02172 0.03717 -0.00784 0.00456 -0.00317
 N1 N 0.01188 0.01811 0.01468 -0.00062 0.00369 -0.00099
 O2 O 0.02897 0.02353 0.04889 0.01 -0.0053 -0.00277
 C8 C 0.01549 0.01815 0.01486 0.00205 0.00505 0.0025
 C9 C 0.01581 0.01795 0.01599 -0.00138 0.00308 0.00135
 C3 C 0.01631 0.01851 0.01433 0.00176 0.00633 0.00169
 C4 C 0.01516 0.02345 0.02372 0.00194 0.00213 0.00281
 C15 C 0.01472 0.01875 0.01691 -0.00159 0.00302 -0.00081
 C13 C 0.0118 0.01663 0.02045 -0.00204 0.00031 0.00336
 C14 C 0.01409 0.019 0.01927 -0.00017 0.00462 0.00045
 C11 C 0.01718 0.01965 0.01696 0.00121 0.00348 -0.00118
 C10 C 0.01067 0.0168 0.01636 -0.00132 0.00113 0.00173
 C1 C 0.0162 0.02218 0.02157 0.00173 0.00284 0.00108
 C7 C 0.02261 0.01668 0.02098 0.00068 0.00637 0.00014
 C12 C 0.01671 0.02258 0.01698 -0.00191 -0.0006 -0.00167
 C5 C 0.01746 0.02341 0.02996 0.00781 0.00671 0.00824
 C2 C 0.01931 0.0184 0.02797 -0.00127 0.00068 -0.0056
 C6 C 0.02705 0.01728 0.02742 0.00567 0.01136 0.00498

loop_
 _jana_atom_site_ADP_C_label
 _jana_atom_site_ADP_C_type_symbol
 _jana_atom_site_ADP_C_111
 _jana_atom_site_ADP_C_112
 _jana_atom_site_ADP_C_113
 _jana_atom_site_ADP_C_122
 _jana_atom_site_ADP_C_123
 _jana_atom_site_ADP_C_133
 _jana_atom_site_ADP_C_222
 _jana_atom_site_ADP_C_223
 _jana_atom_site_ADP_C_233
 _jana_atom_site_ADP_C_333
 ? ? ? ? ? ? ? ? ? ? ? ?

loop_
 _jana_atom_site_ADP_D_label
 _jana_atom_site_ADP_D_type_symbol
 _jana_atom_site_ADP_D_1111
 _jana_atom_site_ADP_D_1112
 _jana_atom_site_ADP_D_1113
 _jana_atom_site_ADP_D_1122
 _jana_atom_site_ADP_D_1123
 _jana_atom_site_ADP_D_1133
 _jana_atom_site_ADP_D_1222
 _jana_atom_site_ADP_D_1223
 _jana_atom_site_ADP_D_1233
 _jana_atom_site_ADP_D_1333
 _jana_atom_site_ADP_D_2222
 _jana_atom_site_ADP_D_2223
 _jana_atom_site_ADP_D_2233
 _jana_atom_site_ADP_D_2333
 _jana_atom_site_ADP_D_3333
 ? ? ? ? ? ? ? ? ? ? ? ? ? ? ? ? ?

loop_
 _jana_atom_site_ADP_E_label
 _jana_atom_site_ADP_E_type_symbol
 _jana_atom_site_ADP_E_11111
 _jana_atom_site_ADP_E_11112
 _jana_atom_site_ADP_E_11113
 _jana_atom_site_ADP_E_11122
 _jana_atom_site_ADP_E_11123
 _jana_atom_site_ADP_E_11133
 _jana_atom_site_ADP_E_11222
 _jana_atom_site_ADP_E_11223
 _jana_atom_site_ADP_E_11233
 _jana_atom_site_ADP_E_11333
 _jana_atom_site_ADP_E_12222
 _jana_atom_site_ADP_E_12223
 _jana_atom_site_ADP_E_12233
 _jana_atom_site_ADP_E_12333
 _jana_atom_site_ADP_E_13333
 _jana_atom_site_ADP_E_22222
 _jana_atom_site_ADP_E_22223
 _jana_atom_site_ADP_E_22233
 _jana_atom_site_ADP_E_22333
 _jana_atom_site_ADP_E_23333
 _jana_atom_site_ADP_E_33333
 ? ? ? ? ? ? ? ? ? ? ? ? ? ? ? ? ? ? ? ? ? ? ?

loop_
 _jana_atom_site_ADP_F_label
 _jana_atom_site_ADP_F_type_symbol
 _jana_atom_site_ADP_F_111111
 _jana_atom_site_ADP_F_111112
 _jana_atom_site_ADP_F_111113
 _jana_atom_site_ADP_F_111122
 _jana_atom_site_ADP_F_111123
 _jana_atom_site_ADP_F_111133
 _jana_atom_site_ADP_F_111222
 _jana_atom_site_ADP_F_111223
 _jana_atom_site_ADP_F_111233
 _jana_atom_site_ADP_F_111333
 _jana_atom_site_ADP_F_112222
 _jana_atom_site_ADP_F_112223
 _jana_atom_site_ADP_F_112233
 _jana_atom_site_ADP_F_112333
 _jana_atom_site_ADP_F_113333
 _jana_atom_site_ADP_F_122222
 _jana_atom_site_ADP_F_122223
 _jana_atom_site_ADP_F_122233
 _jana_atom_site_ADP_F_122333
 _jana_atom_site_ADP_F_123333
 _jana_atom_site_ADP_F_133333
 _jana_atom_site_ADP_F_222222
 _jana_atom_site_ADP_F_222223
 _jana_atom_site_ADP_F_222233
 _jana_atom_site_ADP_F_222333
 _jana_atom_site_ADP_F_223333
 _jana_atom_site_ADP_F_233333
 _jana_atom_site_ADP_F_333333
 ? ? ? ? ? ? ? ? ? ? ? ? ? ? ? ? ? ? ? ? ? ? ? ? ? ? ? ? ? ?


#=======================================================================

# 10. MOLECULAR GEOMETRY


loop_
 _geom_bond_atom_site_label_1
 _geom_bond_atom_site_label_2
 _geom_bond_site_symmetry_1
 _geom_bond_site_symmetry_2
 _geom_bond_distance
 _geom_bond_publ_flag
 ? ? ? ? ? ?

loop_
 _geom_angle_atom_site_label_1
 _geom_angle_atom_site_label_2
 _geom_angle_atom_site_label_3
 _geom_angle_site_symmetry_1
 _geom_angle_site_symmetry_2
 _geom_angle_site_symmetry_3
 _geom_angle
 _geom_angle_publ_flag
 ? ? ? ? ? ? ? ?

loop_
 _geom_torsion_atom_site_label_1
 _geom_torsion_atom_site_label_2
 _geom_torsion_atom_site_label_3
 _geom_torsion_atom_site_label_4
 _geom_torsion_site_symmetry_1
 _geom_torsion_site_symmetry_2
 _geom_torsion_site_symmetry_3
 _geom_torsion_site_symmetry_4
 _geom_torsion
 _geom_torsion_publ_flag
 ? ? ? ? ? ? ? ? ? ?

loop_
 _geom_hbond_atom_site_label_D
 _geom_hbond_atom_site_label_H
 _geom_hbond_atom_site_label_A
 _geom_hbond_site_symmetry_D
 _geom_hbond_site_symmetry_H
 _geom_hbond_site_symmetry_A
 _geom_hbond_distance_DH
 _geom_hbond_distance_HA
 _geom_hbond_distance_DA
 _geom_hbond_angle_DHA
 _geom_hbond_publ_flag
 ? ? ? ? ? ? ? ? ? ? ?


#=======================================================================

# 11. STRUCTURE-FACTOR LIST

loop_
 _refln_index_h
 _refln_index_k
 _refln_index_l
 _refln_F_squared_calc
 _refln_F_squared_meas
 _refln_F_squared_sigma
 _refln_observed_status
   2   0   0   102.53    45.20     4.26 o
   4   0   0  4155.41  3540.35    54.34 o
   6   0   0 17209.70 17489.20   255.03 o
   8   0   0   414.94   410.12    16.17 o
  10   0   0  1592.18  1592.11    55.35 o
   1   1   0 35106.20 32882.40   413.91 o
   2   1   0     7.04    18.68     2.84 o
   3   1   0   167.44   322.09     6.83 o
   4   1   0  5318.93  5632.03    59.55 o
   5   1   0 27155.30 26080.50   281.15 o
   6   1   0    92.21   105.02     6.63 o
   7   1   0  1483.25  1575.60    22.33 o
   8   1   0     2.58     9.13     7.24 <
   9   1   0    35.55    37.55     8.53 o
  10   1   0   559.65   538.15    18.27 o
  11   1   0  2147.33  2045.40    51.43 o
   0   2   0 59322.30 54390.70  1675.14 o
   1   2   0  4265.02  4479.01    52.10 o
   2   2   0  9278.75  8977.97    99.27 o
   3   2   0  1927.74  1760.87    20.64 o
   4   2   0  7624.73  7486.55    79.78 o
   5   2   0  1590.64  1564.43    20.44 o
   6   2   0 15651.90 15383.00   161.79 o
   7   2   0    39.60    42.76     6.63 o
   8   2   0    46.64    49.67     7.44 o
   9   2   0  1861.98  1825.76    30.11 o
  10   2   0   814.26   794.74    24.22 o
  11   2   0   435.86   464.73    26.52 o
   1   3   0  8235.55  7743.28    91.69 o
   2   3   0  3973.66  4075.58    43.71 o
   3   3   0  6765.53  6542.34    75.31 o
   4   3   0 27150.70 28792.60   316.14 o
   5   3   0  8337.23  8202.93    91.62 o
   6   3   0   336.65   369.32    10.29 o
   7   3   0  3689.67  3664.78    44.93 o
   8   3   0   790.83   752.38    17.05 o
   9   3   0     4.11    -0.88     8.53 <
  10   3   0  5040.07  4939.81    79.17 o
  11   3   0  1761.58  1828.13    44.32 o
   0   4   0  3129.79  2992.39    48.92 o
   1   4   0 10230.80 10545.90   119.09 o
   2   4   0  9295.98  8620.50    94.06 o
   3   4   0  5110.52  5486.42    62.59 o
   4   4   0  3635.24  3388.17    40.46 o
   5   4   0  6351.03  6187.64    71.59 o
   6   4   0  2692.89  2657.58    34.98 o
   7   4   0  2623.08  2730.45    36.95 o
   8   4   0    39.01    44.05     9.41 o
   9   4   0  6834.82  6835.06    92.23 o
  10   4   0   617.67   590.72    21.38 o
  11   4   0  1970.70  1930.44    44.66 o
   1   5   0  3266.36  3243.77    38.70 o
   2   5   0  3860.64  4062.12    47.98 o
   3   5   0  5579.73  5382.68    59.28 o
   4   5   0 23297.20 23905.50   281.69 o
   5   5   0  3743.71  3853.91    48.58 o
   6   5   0   132.60   138.71     8.53 o
   7   5   0    22.65    40.19     7.51 o
   8   5   0   205.06   244.41    11.50 o
   9   5   0  1097.60  1026.69    24.36 o
  10   5   0  6323.85  6190.55   100.82 o
  11   5   0    44.09    55.62    13.67 o
   0   6   0    47.69    84.04     7.17 o
   1   6   0  1293.96  1315.36    18.81 o
   2   6   0  2402.02  2233.18    29.77 o
   3   6   0  1116.40   967.15    14.41 o
   4   6   0  3533.51  3579.19    44.25 o
   5   6   0  7743.57  7759.79    93.38 o
   6   6   0   541.01   549.18    14.48 o
   7   6   0    35.76    43.37     8.05 o
   8   6   0  1270.32  1288.70    22.74 o
   9   6   0  6021.08  5954.60    90.81 o
  10   6   0    54.68    89.59    14.48 o
   1   7   0   638.15   720.91    13.13 o
   2   7   0    67.94   113.61     5.89 o
   3   7   0  5900.12  6208.95    73.21 o
   4   7   0  5924.75  5881.38    65.77 o
   5   7   0  1770.52  1712.69    27.61 o
   6   7   0  1772.33  1792.67    27.40 o
   7   7   0     0.88     0.20     7.58 <
   8   7   0  3085.73  2982.64    42.43 o
   9   7   0   793.88   775.32    23.82 o
  10   7   0  5048.56  4945.29    84.04 o
   0   8   0 13781.70 14430.80   237.37 o
   1   8   0  2797.77  3292.96    39.04 o
   2   8   0  4300.20  4544.64    52.58 o
   3   8   0  3375.02  3530.06    44.05 o
   4   8   0    50.25    48.11     6.43 o
   5   8   0  3147.70  3194.10    42.49 o
   6   8   0  2022.51  2065.97    29.84 o
   7   8   0  2096.92  2078.22    34.44 o
   8   8   0  1932.01  1906.49    32.28 o
   9   8   0  2972.61  3129.34    57.65 o
  10   8   0  1146.14  1147.95    37.83 o
   1   9   0  8102.57  8368.64    93.78 o
   2   9   0   362.52   344.89     9.41 o
   3   9   0  1289.58  1357.99    21.25 o
   4   9   0  3646.31  3778.12    47.03 o
   5   9   0  7737.81  7874.01    91.55 o
   6   9   0  2287.44  2294.75    33.29 o
   7   9   0   275.65   326.55    13.60 o
   8   9   0  3523.10  3573.57    58.19 o
   9   9   0   749.25   703.18    22.87 o
  10   9   0  1009.87   954.83    32.95 o
   0  10   0 17561.60 17100.20   295.97 o
   1  10   0  1641.33  1680.68    23.95 o
   2  10   0   183.68   184.19     9.20 o
   3  10   0  1534.47  1604.15    24.63 o
   4  10   0   502.96   522.99    13.60 o
   5  10   0    94.01   118.21     8.66 o
   6  10   0  2971.87  2985.49    42.16 o
   7  10   0  2530.99  2573.33    39.38 o
   8  10   0   238.62   251.85    15.22 o
   9  10   0   926.44   927.56    26.80 o
   1  11   0  6210.01  6347.33    80.25 o
   2  11   0   512.67   519.74    13.40 o
   3  11   0   591.30   592.08    15.50 o
   4  11   0  1248.21  1213.86    21.45 o
   5  11   0  7086.09  7099.64    83.91 o
   6  11   0  6575.19  6551.95    84.85 o
   7  11   0  1033.98  1008.29    24.36 o
   8  11   0  2099.44  2199.89    43.51 o
   9  11   0    56.05    48.45    13.53 o
   0  12   0  9477.37  9986.13   169.84 o
   1  12   0  3594.35  3732.04    48.31 o
   2  12   0  1714.45  1748.89    26.73 o
   3  12   0   112.23   115.37     9.27 o
   4  12   0  3391.32  3291.94    43.31 o
   5  12   0   186.68   211.79    11.64 o
   6  12   0  5583.85  5424.30    74.09 o
   7  12   0  3211.79  3220.08    56.64 o
   8  12   0   136.41   122.14    14.14 o
   9  12   0   108.44   129.45    19.01 o
   1  13   0  5443.45  5479.99    71.46 o
   2  13   0  1345.71  1308.05    23.68 o
   3  13   0  1209.71  1207.02    23.34 o
   4  13   0  1082.69  1086.38    20.71 o
   5  13   0  3704.45  3539.67    45.61 o
   6  13   0  2318.44  2351.46    45.34 o
   7  13   0   540.27   551.95    23.95 o
   8  13   0   865.61   808.54    30.25 o
   0  14   0  5533.43  5744.29    98.79 o
   1  14   0  1635.38  1621.54    29.03 o
   2  14   0  6164.25  6409.51    83.03 o
   3  14   0    17.77    19.42    10.01 <
   4  14   0  3623.86  3651.79    53.46 o
   5  14   0   713.37   684.37    18.68 o
   6  14   0  1458.52  1417.94    33.36 o
   7  14   0  1191.86  1176.78    35.73 o
   8  14   0  2087.54  2001.76    50.07 o
   1  15   0  1385.56  1458.20    27.13 o
   2  15   0  1534.57  1500.22    28.69 o
   3  15   0  9413.05  9447.37   119.97 o
   4  15   0   940.93   917.28    23.95 o
   5  15   0   724.40   696.55    21.86 o
   6  15   0    34.70    35.46    13.60 o
   7  15   0   327.07   364.04    23.14 o
   0  16   0   197.63   208.14    17.80 o
   1  16   0  1572.41  1525.80    28.89 o
   2  16   0  8347.80  8197.79   108.67 o
   3  16   0   155.65   149.20    12.04 o
   4  16   0  3650.76  3655.45    59.14 o
   5  16   0   268.16   272.29    18.47 o
   6  16   0   369.27   363.91    23.34 o
   1  17   0  1244.51  1177.45    29.03 o
   2  17   0   242.55   232.37    14.35 o
   3  17   0  6090.35  6136.14    89.25 o
   4  17   0   597.47   581.11    20.98 o
   5  17   0   172.06   202.19    17.73 o
   6  17   0   321.51   346.18    25.92 o
   0  18   0   102.90   125.86    25.44 o
   1  18   0    35.57     1.35    12.11 <
   2  18   0  3297.63  3341.61    61.71 o
   3  18   0   312.43   314.85    18.34 o
   4  18   0  1765.69  1774.74    42.29 o
   5  18   0   358.46   424.60    24.36 o
   1  19   0   397.98   431.51    24.83 o
   2  19   0   923.65   893.87    31.74 o
   3  19   0  1873.52  1832.05    50.55 o
   0  20   0   126.41   160.23    29.84 o
   1  20   0  1158.18  1115.07    41.28 o
 -11   0   1  6648.28  6882.63   170.38 o
  -9   0   1  2375.77  2386.37    48.25 o
  -7   0   1  2004.84  2068.55    38.37 o
  -5   0   1    74.78    97.98     8.46 o
  -3   0   1 10498.50 10619.80   166.80 o
  -1   0   1  3551.22  3241.87   128.50 o
   1   0   1 20772.20 19539.90  1046.66 o
   3   0   1 33272.10 31988.40   474.88 o
   5   0   1  3082.67  3073.52    52.58 o
   7   0   1 11628.80 11475.60   201.04 o
   9   0   1  8713.15  8774.71   178.03 o
  11   0   1    80.68   108.06    20.57 o
 -11   1   1     2.32    21.99    12.52 <
 -10   1   1   555.60   569.81    19.35 o
  -9   1   1   192.89   190.14    10.62 o
  -8   1   1  1130.86  1125.22    19.89 o
  -7   1   1  2582.98  2665.22    33.36 o
  -6   1   1  8022.45  8059.41    87.15 o
  -5   1   1   511.58   563.72    11.23 o
  -4   1   1 14040.80 14684.10   166.26 o
  -3   1   1     1.23     5.48     3.65 <
  -2   1   1  4915.99  4824.37    53.25 o
  -1   1   1   601.71   646.95     9.34 o
   1   1   1   135.36   162.53     5.28 o
   2   1   1 23713.40 23296.50   293.94 o
   3   1   1   739.14   755.56    11.57 o
   4   1   1  2961.95  2396.25    28.96 o
   5   1   1  1068.60  1100.31    16.65 o
   6   1   1  1365.42  1361.78    21.65 o
   7   1   1  1392.73  1409.01    24.16 o
   8   1   1 13959.80 14611.90   208.55 o
   9   1   1   383.19   391.31    15.70 o
  10   1   1  1068.06  1091.99    27.54 o
  11   1   1    48.05    59.14    14.41 o
 -11   2   1  2138.26  2101.36    48.31 o
 -10   2   1   364.40   376.76    15.77 o
  -9   2   1   715.45   682.55    17.25 o
  -8   2   1  4416.01  4626.11    55.01 o
  -7   2   1  2782.45  2817.74    36.81 o
  -6   2   1  1766.11  1700.38    23.82 o
  -5   2   1  3834.01  4162.74    48.72 o
  -4   2   1    15.06    18.47     4.74 o
  -3   2   1 20237.40 20368.10   228.78 o
  -2   2   1 14413.90 14169.20   152.86 o
  -1   2   1  7683.41  7562.27    85.33 o
   0   2   1  1599.49  1813.85    23.62 o
   1   2   1  5822.03  5512.81    70.78 o
   2   2   1  3553.09  3743.21    41.48 o
   3   2   1 23083.10 22319.70   239.60 o
   4   2   1 10804.70 11104.00   120.85 o
   5   2   1  3511.00  3414.76    40.87 o
   6   2   1    25.13    30.86     6.50 o
   7   2   1  9124.69  8840.21   103.19 o
   8   2   1   359.11   328.79    14.55 o
   9   2   1  7554.66  7445.14   101.43 o
  10   2   1   190.63   215.72    14.68 o
  11   2   1   181.05   190.62    17.73 o
 -11   3   1     5.09    37.15    14.28 o
 -10   3   1   374.81   387.79    16.51 o
  -9   3   1   353.22   371.42    13.53 o
  -8   3   1    29.93    49.13     8.19 o
  -7   3   1 14173.00 13998.20   152.11 o
  -6   3   1   925.92   995.43    17.59 o
  -5   3   1    38.21    50.41     5.75 o
  -4   3   1  4830.35  5054.71    58.67 o
  -3   3   1 14483.90 14692.10   162.47 o
  -2   3   1  4082.22  3940.66    44.19 o
  -1   3   1 30575.70 30551.90   326.96 o
   0   3   1    62.70   145.41     4.80 o
   1   3   1   104.68   127.96     4.53 o
   2   3   1 21154.70 21273.10   232.97 o
   3   3   1   489.60   369.46     7.65 o
   4   3   1  8407.83  8097.17    87.29 o
   5   3   1  2228.73  2255.98    28.49 o
   6   3   1  3220.93  3165.68    39.25 o
   7   3   1   617.78   658.39    14.75 o
   8   3   1  6107.49  6215.72    79.24 o
   9   3   1   975.37   945.63    24.56 o
  10   3   1  1259.64  1254.53    33.90 o
  11   3   1   653.58   748.52    38.84 o
 -11   4   1   317.57   295.77    22.80 o
 -10   4   1   383.80   380.35    17.73 o
  -9   4   1   287.85   283.39    12.65 o
  -8   4   1  8849.66  9260.21   105.63 o
  -7   4   1   717.46   693.10    15.50 o
  -6   4   1  5823.88  5615.12    65.64 o
  -5   4   1     5.76    10.29     5.75 <
  -4   4   1    74.26    49.87     5.35 o
  -3   4   1   976.86   896.64    13.87 o
  -2   4   1 46357.70 46184.60   466.96 o
  -1   4   1  2031.74  2365.19    26.39 o
   0   4   1  2413.25  3005.11    35.66 o
   1   4   1  4189.35  3839.02    49.40 o
   2   4   1  7166.12  7606.05    93.04 o
   3   4   1  9518.69  9339.24   101.97 o
   4   4   1  9463.90  9361.37   105.29 o
   5   4   1  4033.81  4023.82    46.62 o
   6   4   1   494.49   526.17    12.11 o
   7   4   1  2705.66  2620.50    37.62 o
   8   4   1   608.78   625.37    16.85 o
   9   4   1  2150.23  2238.52    40.94 o
  10   4   1   712.97   732.62    27.00 o
 -11   5   1   328.33   367.36    22.26 o
 -10   5   1    24.67    35.46    11.64 o
  -9   5   1  1691.41  1575.40    31.13 o
  -8   5   1   113.57   127.01    11.50 o
  -7   5   1 11718.30 11972.70   139.46 o
  -6   5   1  1585.23  1574.31    24.97 o
  -5   5   1    99.74    96.22     6.77 o
  -4   5   1     5.46     9.95     5.14 <
  -3   5   1 25143.70 24975.90   258.89 o
  -2   5   1     5.44    11.23     3.92 o
  -1   5   1 36097.80 36284.10   388.81 o
   0   5   1 11490.30 11712.40   129.78 o
   1   5   1   167.61   149.81     5.89 o
   2   5   1  2223.70  2130.80    26.86 o
   3   5   1 13936.20 14217.30   157.59 o
   4   5   1  2848.51  2859.56    34.17 o
   5   5   1  2618.43  2630.04    32.89 o
   6   5   1  1593.31  1579.05    23.14 o
   7   5   1  2884.43  3014.04    41.21 o
   8   5   1   143.09   157.93    10.56 o
   9   5   1   623.85   653.45    21.65 o
  10   5   1  1540.58  1458.00    38.77 o
 -11   6   1    16.28    15.22    14.55 <
 -10   6   1    54.73    66.99    11.98 o
  -9   6   1  1306.29  1204.99    26.93 o
  -8   6   1  7875.56  7878.20    95.88 o
  -7   6   1    10.49    32.07     8.32 o
  -6   6   1 10472.60 10649.70   121.80 o
  -5   6   1  1760.53  1872.86    26.66 o
  -4   6   1  4471.25  4407.96    52.51 o
  -3   6   1  2016.87  1999.26    24.90 o
  -2   6   1 24326.80 23786.60   256.52 o
  -1   6   1  1838.75  1724.87    22.19 o
   0   6   1  1941.30  1710.73    22.67 o
   1   6   1   668.44   644.31    12.52 o
   2   6   1  2265.19  2132.76    28.76 o
   3   6   1    14.15    27.95     4.87 o
   4   6   1 14878.30 15385.80   167.68 o
   5   6   1  3083.54  3275.84    38.98 o
   6   6   1   813.50   812.26    16.10 o
   7   6   1    63.42    49.40     8.26 o
   8   6   1   400.50   417.90    14.75 o
   9   6   1     3.91    14.28    11.50 <
  10   6   1   254.51   228.44    17.39 o
 -10   7   1    31.13    48.58    12.25 o
  -9   7   1  2854.31  2862.40    54.20 o
  -8   7   1   516.23   598.78    17.66 o
  -7   7   1  9937.91 10195.10   123.08 o
  -6   7   1  6840.17  6882.57    89.52 o
  -5   7   1  4045.93  3990.19    50.28 o
  -4   7   1  2370.14  2424.67    33.29 o
  -3   7   1 12853.10 12231.10   134.11 o
  -2   7   1  1188.18  1380.52    18.74 o
  -1   7   1 21106.00 20434.30   216.53 o
   0   7   1 11056.20 11495.90   131.07 o
   1   7   1   393.67   328.79     9.88 o
   2   7   1  1516.50  1570.80    22.40 o
   3   7   1  5887.65  5735.63    65.30 o
   4   7   1    28.74    63.88     5.89 o
   5   7   1  2863.48  2829.38    37.76 o
   6   7   1   130.48   168.49     8.93 o
   7   7   1   879.52   870.05    19.62 o
   8   7   1   739.53   788.31    19.83 o
   9   7   1   343.92   338.80    16.31 o
  10   7   1   311.63   324.12    20.91 o
 -10   8   1  1914.33  1919.21    45.34 o
  -9   8   1  2332.11  2355.99    47.57 o
  -8   8   1  6382.34  6437.26    81.54 o
  -7   8   1  1729.36  1771.49    29.37 o
  -6   8   1  3957.30  3811.01    50.55 o
  -5   8   1   893.64   950.37    19.89 o
  -4   8   1 10795.70 10724.40   119.09 o
  -3   8   1  4696.60  4563.72    52.64 o
  -2   8   1  8822.38  8313.36    92.50 o
  -1   8   1  1650.90  1567.01    20.71 o
   0   8   1  3412.82  3014.31    36.20 o
   1   8   1     1.88    10.62     6.50 <
   2   8   1  1742.57  1689.41    24.97 o
   3   8   1  6980.56  7070.47    79.85 o
   4   8   1  3192.76  3182.66    39.58 o
   5   8   1  4175.76  4182.16    51.83 o
   6   8   1    13.99    22.80     7.24 o
   7   8   1   160.99   168.83    11.10 o
   8   8   1    39.67    40.53    11.16 o
   9   8   1  1067.91  1014.58    30.79 o
  10   8   1     2.24    15.09    14.14 <
 -10   9   1     5.58    37.28    15.63 o
  -9   9   1  4001.26  4003.86    70.85 o
  -8   9   1   729.99   785.33    21.45 o
  -7   9   1  6253.65  6102.24    77.61 o
  -6   9   1  2021.97  2016.38    30.72 o
  -5   9   1  2089.79  2167.95    31.53 o
  -4   9   1  2532.53  2597.90    34.85 o
  -3   9   1  9733.59  9794.57   116.86 o
  -2   9   1  1743.56  1711.41    23.55 o
  -1   9   1  5223.28  5174.61    60.83 o
   0   9   1   822.61   768.14    14.82 o
   1   9   1 13557.00 14096.40   172.95 o
   2   9   1  8710.71  8549.65   105.02 o
   3   9   1  1135.47  1099.98    17.66 o
   4   9   1   276.84   297.39    10.01 o
   5   9   1    48.52    74.09     7.58 o
   6   9   1   118.42   118.55     9.95 o
   7   9   1   626.83   625.84    18.07 o
   8   9   1  5705.47  5642.05    88.51 o
   9   9   1   407.80   426.97    21.45 o
 -10  10   1  2614.43  2613.53    56.30 o
  -9  10   1   447.73   478.33    21.38 o
  -8  10   1  2414.92  2403.90    43.37 o
  -7  10   1   664.22   636.60    18.20 o
  -6  10   1  1631.78  1638.93    27.00 o
  -5  10   1    12.24    15.09     7.78 <
  -4  10   1  5397.60  5663.16    72.33 o
  -3  10   1  3952.55  3948.57    48.72 o
  -2  10   1  2405.50  2370.00    31.40 o
  -1  10   1   957.17  1073.65    18.27 o
   0  10   1  7030.36  7076.36    85.67 o
   1  10   1   273.25   303.89    10.83 o
   2  10   1  4805.69  4751.16    61.51 o
   3  10   1 10353.90 10557.30   123.63 o
   4  10   1  1560.78  1515.85    23.07 o
   5  10   1   606.41   630.71    14.89 o
   6  10   1  1709.68  1579.19    26.46 o
   7  10   1  1201.69  1255.34    25.92 o
   8  10   1     5.92     8.93    11.57 <
   9  10   1  2213.02  2217.21    50.01 o
  -9  11   1  1144.31  1099.71    33.02 o
  -8  11   1   153.60   128.16    13.67 o
  -7  11   1   822.93   847.99    20.37 o
  -6  11   1  1242.99  1284.16    25.37 o
  -5  11   1  6624.01  6514.73    80.12 o
  -4  11   1  2277.27  2292.93    32.89 o
  -3  11   1  3331.53  3426.94    44.46 o
  -2  11   1  1514.55  1489.66    23.68 o
  -1  11   1  1510.43  1624.45    24.50 o
   0  11   1    53.34    69.02     8.32 o
   1  11   1 13961.20 14565.60   175.80 o
   2  11   1  6167.23  6133.17    76.39 o
   3  11   1    26.62    28.69     7.85 o
   4  11   1  2475.73  2488.34    33.29 o
   5  11   1     1.75    43.37     8.12 o
   6  11   1   693.51   666.24    19.42 o
   7  11   1  2955.50  2876.61    52.78 o
   8  11   1  3890.66  3790.78    72.27 o
   9  11   1  1458.21  1528.71    44.32 o
  -9  12   1    19.08     2.98    12.92 <
  -8  12   1    99.93    80.79    12.04 o
  -7  12   1   317.94   297.53    14.14 o
  -6  12   1   458.51   456.41    14.89 o
  -5  12   1   347.32   367.09    12.72 o
  -4  12   1  6854.56  6767.87    79.30 o
  -3  12   1  2257.56  2340.63    32.55 o
  -2  12   1   596.72   614.81    15.63 o
  -1  12   1   217.02   208.21    10.01 o
   0  12   1  2879.82  2938.73    41.95 o
   1  12   1  6275.44  6479.34    84.51 o
   2  12   1  2791.46  2793.65    38.98 o
   3  12   1  1618.51  1642.45    29.10 o
   4  12   1   593.70   599.32    16.51 o
   5  12   1  3475.09  3393.24    44.93 o
   6  12   1   575.85   620.70    18.81 o
   7  12   1  2409.44  2325.00    50.34 o
   8  12   1     3.10    12.25    11.71 <
  -8  13   1   106.50    75.79    13.47 o
  -7  13   1    95.78    74.30    12.59 o
  -6  13   1     1.00     2.50     9.47 <
  -5  13   1  6176.64  6097.91    75.24 o
  -4  13   1   445.33   453.36    14.68 o
  -3  13   1     2.56     5.68     7.98 <
  -2  13   1   148.43   142.50    10.01 o
  -1  13   1   289.61   295.50    11.91 o
   0  13   1  3273.19  3311.23    49.53 o
   1  13   1  7434.97  7589.13    92.84 o
   2  13   1  3879.46  3927.33    51.49 o
   3  13   1    46.95    55.28     9.34 o
   4  13   1  4179.98  4111.31    56.16 o
   5  13   1   221.30   204.69    11.84 o
   6  13   1  1859.39  1891.06    38.50 o
   7  13   1  1013.17  1028.99    32.55 o
   8  13   1  1408.69  1277.06    35.66 o
  -8  14   1   396.98   416.69    25.37 o
  -7  14   1     5.18     0.95    11.98 <
  -6  14   1     0.08     8.59    10.76 <
  -5  14   1   232.20   223.70    11.71 o
  -4  14   1  2512.82  2436.92    35.19 o
  -3  14   1     6.18     3.11     9.47 <
  -2  14   1  1914.17  1953.85    31.26 o
  -1  14   1  2352.57  2446.53    36.95 o
   0  14   1   342.05   341.98    14.82 o
   1  14   1  3350.83  3340.87    46.89 o
   2  14   1   144.10   153.40    10.62 o
   3  14   1  1808.79  1806.81    29.71 o
   4  14   1  1355.84  1315.36    26.39 o
   5  14   1 10374.00 10069.50   144.80 o
   6  14   1   457.36   440.37    21.11 o
   7  14   1  1984.90  1953.51    46.08 o
  -7  15   1  1163.96  1202.15    39.79 o
  -6  15   1   840.37   899.01    28.89 o
  -5  15   1   721.35   712.59    20.64 o
  -4  15   1   157.66   146.56    11.64 o
  -3  15   1    12.39    39.79     9.74 o
  -2  15   1   315.65   314.31    14.14 o
  -1  15   1   794.31   832.16    21.38 o
   0  15   1  4998.53  5084.35    68.75 o
   1  15   1   278.51   313.02    13.74 o
   2  15   1   473.35   516.29    16.31 o
   3  15   1   356.03   338.60    14.35 o
   4  15   1  3888.00  3853.30    59.75 o
   5  15   1    68.16    86.95    12.59 o
   6  15   1  1751.22  1758.37    45.47 o
   7  15   1   475.79   503.37    29.37 o
  -7  16   1    80.51    48.11    14.55 o
  -6  16   1    44.71    61.44    13.47 o
  -5  16   1   859.83   855.16    25.31 o
  -4  16   1     6.57    -4.80    10.96 <
  -3  16   1    23.35     3.52    10.89 <
  -2  16   1  1113.50  1067.09    25.58 o
  -1  16   1  3950.67  3838.89    57.18 o
   0  16   1   359.62   403.83    17.53 o
   1  16   1  1071.47  1106.34    24.56 o
   2  16   1     1.74     4.06     9.88 <
   3  16   1   520.01   565.75    20.16 o
   4  16   1   388.78   399.77    16.92 o
   5  16   1  6034.99  5821.77    98.79 o
   6  16   1    24.57    10.62    12.45 <
  -6  17   1  1602.93  1622.36    45.07 o
  -5  17   1   519.37   490.78    22.53 o
  -4  17   1    14.54    13.33    12.18 <
  -3  17   1   673.02   654.87    22.74 o
  -2  17   1    42.44    56.77    12.92 o
  -1  17   1   205.88   195.22    14.07 o
   0  17   1  4827.22  4896.50    72.54 o
   1  17   1   635.61   583.75    19.76 o
   2  17   1   255.97   279.66    17.19 o
   3  17   1   229.86   232.77    15.43 o
   4  17   1   970.65   977.43    28.96 o
   5  17   1    38.53    35.39    13.47 o
  -5  18   1   180.20   145.89    16.51 o
  -4  18   1  2082.55  2003.04    46.76 o
  -3  18   1   182.54   173.23    17.19 o
  -2  18   1   375.02   422.84    19.89 o
  -1  18   1  1140.12  1132.79    33.56 o
   0  18   1  1200.90  1150.25    30.92 o
   1  18   1  1105.58  1106.47    31.74 o
   2  18   1   455.45   441.38    20.98 o
   3  18   1    15.29    29.16    13.13 o
   4  18   1     4.53    24.97    13.67 <
  -4  19   1    34.98    46.69    14.95 o
  -3  19   1  1108.67  1069.26    36.88 o
  -2  19   1     0.46    18.68    14.35 <
  -1  19   1   383.58   376.76    23.95 o
   0  19   1  2667.63  2647.90    58.87 o
   1  19   1  1813.77  1789.49    46.62 o
   2  19   1    42.01    45.54    15.29 o
   3  19   1   139.20    96.02    16.44 o
  -1  20   1   716.85   746.15    36.00 o
   0  20   1  1658.72  1674.87    54.34 o
   1  20   1   167.18   174.24    21.31 o
 -10   0   2  5933.42  6069.29   140.47 o
  -8   0   2  9951.67  9667.69   147.58 o
  -6   0   2    92.02   106.10     9.81 o
  -4   0   2 16725.20 15742.60   237.44 o
  -2   0   2  7155.37  6936.22   115.10 o
   0   0   2    48.91    65.57     4.20 o
   2   0   2  9304.27 10191.80   392.33 o
   4   0   2  5301.63  5838.62   162.74 o
   6   0   2  8241.84  8442.13   190.34 o
   8   0   2   798.16   833.51    37.28 o
  10   0   2 10103.50 10332.60   264.57 o
 -11   1   2  1140.80  1267.38    36.88 o
 -10   1   2   380.50   391.99    16.44 o
  -9   1   2 12746.40 12776.20   143.72 o
  -8   1   2   411.81   415.54    12.79 o
  -7   1   2  2040.38  1950.47    26.86 o
  -6   1   2   875.77   815.17    15.09 o
  -5   1   2  1584.93  1288.83    19.22 o
  -4   1   2   555.09   554.99    10.62 o
  -3   1   2 18590.10 17621.80   187.03 o
  -2   1   2  3352.16  3656.19    42.43 o
  -1   1   2    92.01   109.69     3.86 o
   0   1   2   188.35   192.31     4.47 o
   1   1   2   493.14   501.27     9.54 o
   2   1   2     4.36    39.86     7.17 o
   3   1   2  7254.81  8054.81   127.35 o
   4   1   2   293.10   359.51    10.69 o
   5   1   2 18006.60 18305.20   264.78 o
   6   1   2  3985.42  3952.09    62.25 o
   7   1   2    15.48    14.41     8.53 <
   8   1   2   205.82   232.37    13.60 o
   9   1   2  1120.97  1139.97    32.41 o
  10   1   2   348.78   409.78    21.52 o
 -11   2   2   162.93   133.84    16.65 o
 -10   2   2  5671.66  5572.01    95.21 o
  -9   2   2     1.87     3.04     8.59 <
  -8   2   2  5261.14  5087.39    61.51 o
  -7   2   2    13.31    21.92     7.51 o
  -6   2   2   656.89   599.66    14.28 o
  -5   2   2  3636.61  3427.61    42.63 o
  -4   2   2 13010.30 12468.00   139.39 o
  -3   2   2    56.53    75.31     5.07 o
  -2   2   2  9282.34  9355.01    99.94 o
  -1   2   2    20.64    78.83     4.13 o
   0   2   2    41.92    68.41     3.52 o
   1   2   2 10442.30 10411.30   136.35 o
   2   2   2  5364.40  5611.33    85.46 o
   3   2   2  1165.30  1207.77    20.57 o
   4   2   2  4062.33  4073.82    54.81 o
   5   2   2  1152.55  1129.21    20.16 o
   6   2   2  5595.79  5590.01    80.66 o
   7   2   2  5575.37  5695.03    85.46 o
   8   2   2   282.96   264.17    13.80 o
   9   2   2   869.47   881.62    26.32 o
  10   2   2  3911.80  3777.85    70.78 o
 -11   3   2  1528.02  1670.20    45.20 o
 -10   3   2  2208.23  2118.35    45.00 o
  -9   3   2  3644.76  3634.13    47.70 o
  -8   3   2   269.30   275.47    11.71 o
  -7   3   2  3040.48  3008.42    39.25 o
  -6   3   2  3115.23  3160.94    40.94 o
  -5   3   2  5383.08  5365.02    64.76 o
  -4   3   2  5159.34  4946.24    55.62 o
  -3   3   2  4441.36  4168.49    47.84 o
  -2   3   2   435.48   581.79     9.47 o
  -1   3   2  9020.97  9551.10    99.81 o
   0   3   2 43393.60 44001.30   461.28 o
   1   3   2   283.03   394.83     7.78 o
   2   3   2 21110.20 21433.20   271.48 o
   3   3   2  1606.20  1910.88    30.38 o
   4   3   2   765.35   935.01    16.71 o
   5   3   2  5795.34  5788.88    84.65 o
   6   3   2 12317.40 12195.50   158.27 o
   7   3   2   947.73   952.87    21.59 o
   8   3   2   491.56   438.00    15.97 o
   9   3   2   813.71   829.65    25.31 o
  10   3   2    93.77   100.75    15.22 o
 -11   4   2   511.68   521.50    24.83 o
 -10   4   2  1502.83  1392.23    33.77 o
  -9   4   2   197.70   185.00    11.37 o
  -8   4   2  4635.83  4559.12    57.58 o
  -7   4   2    25.72    29.91     7.78 o
  -6   4   2  2669.24  2630.04    36.07 o
  -5   4   2 15774.10 15569.90   174.51 o
  -4   4   2  1061.21   943.40    15.29 o
  -3   4   2  9158.60  9294.18    98.45 o
  -2   4   2  6799.96  7040.16    73.35 o
  -1   4   2  1093.75  1520.66    18.74 o
   0   4   2   495.35   524.00     9.88 o
   1   4   2 62293.00 62162.50   692.42 o
   2   4   2   144.36   150.56     5.35 o
   3   4   2    31.04    62.66     5.07 o
   4   4   2   257.12   262.95     8.66 o
   5   4   2  4903.44  4710.90    60.70 o
   6   4   2    69.17    76.33     7.92 o
   7   4   2  6855.11  7199.99    94.12 o
   8   4   2   475.40   544.58    17.39 o
   9   4   2   861.16   829.45    27.61 o
  10   4   2  1186.86  1202.69    35.93 o
 -11   5   2  1449.41  1393.65    41.82 o
 -10   5   2  1692.16  1652.33    38.64 o
  -9   5   2   135.07   162.53    11.50 o
  -8   5   2   434.49   469.80    14.35 o
  -7   5   2   447.37   471.29    13.40 o
  -6   5   2  2888.82  2838.31    36.81 o
  -5   5   2  1425.98  1350.34    21.18 o
  -4   5   2 20746.80 20471.00   218.02 o
  -3   5   2  1284.18  1251.21    18.20 o
  -2   5   2    57.88    58.26     4.40 o
  -1   5   2   288.08   370.13     7.98 o
   0   5   2 25798.10 25183.70   295.56 o
   1   5   2   534.26   608.32    11.03 o
   2   5   2 24223.20 24246.50   284.81 o
   3   5   2  1278.41  1503.87    20.30 o
   4   5   2   247.60   253.95     8.46 o
   5   5   2    38.17    48.65     6.90 o
   6   5   2 12050.50 12104.10   145.68 o
   7   5   2  1344.02  1295.06    24.56 o
   8   5   2  1020.99   931.56    24.29 o
   9   5   2   253.28   284.87    17.19 o
  10   5   2   153.49   175.66    22.26 o
 -11   6   2   829.70   800.69    30.52 o
 -10   6   2     2.18     0.68    11.98 <
  -9   6   2     6.22    17.93    10.83 <
  -8   6   2    36.37    29.91     9.41 o
  -7   6   2   540.89   522.04    14.07 o
  -6   6   2  2030.20  2017.19    30.38 o
  -5   6   2 24223.30 24456.00   265.93 o
  -4   6   2    36.13    52.91     6.09 o
  -3   6   2  5388.59  5257.77    56.57 o
  -2   6   2  2597.97  2860.78    32.21 o
  -1   6   2  2406.18  2154.55    26.59 o
   0   6   2  3685.57  3888.01    46.69 o
   1   6   2 45395.90 44711.60   500.05 o
   2   6   2  1694.24  1572.96    22.60 o
   3   6   2  4082.66  3948.64    48.58 o
   4   6   2  1361.53  1398.52    20.91 o
   5   6   2  3350.58  3351.69    44.52 o
   6   6   2    25.02    30.25     7.24 o
   7   6   2  8564.24  8630.44   120.44 o
   8   6   2  1843.94  1941.54    38.91 o
   9   6   2    15.93    19.56    12.86 <
  10   6   2    12.84    26.52    15.09 <
 -11   7   2   396.71   375.14    24.09 o
 -10   7   2  1052.35  1064.93    32.41 o
  -9   7   2  1080.99  1033.05    26.39 o
  -8   7   2   511.64   493.89    15.63 o
  -7   7   2    79.89    98.86     9.13 o
  -6   7   2  1506.36  1425.52    23.07 o
  -5   7   2   821.07   940.62    17.53 o
  -4   7   2  9793.21  9510.37   103.93 o
  -3   7   2  2842.62  3000.98    35.05 o
  -2   7   2  4042.37  4120.38    46.82 o
  -1   7   2  8922.43  9532.50   107.52 o
   0   7   2 12679.60 11921.60   133.30 o
   1   7   2  1055.39  1187.54    18.95 o
   2   7   2 16562.10 15852.10   193.12 o
   3   7   2  3658.54  3829.62    48.18 o
   4   7   2  5453.79  5549.68    70.24 o
   5   7   2  6161.19  6369.52    79.37 o
   6   7   2  8736.56  8811.25   106.10 o
   7   7   2   987.75  1053.69    21.65 o
   8   7   2  2510.23  2461.21    51.90 o
   9   7   2   228.49   205.37    15.56 o
  10   7   2   124.14   132.76    18.34 o
 -10   8   2   472.79   492.81    23.34 o
  -9   8   2   527.56   512.43    20.50 o
  -8   8   2  1201.72  1122.51    24.50 o
  -7   8   2  1337.16  1343.64    24.02 o
  -6   8   2  4997.08  4945.97    61.10 o
  -5   8   2  6983.59  6906.79    83.50 o
  -4   8   2  5681.50  5945.73    70.10 o
  -3   8   2  4354.58  4186.83    50.41 o
  -2   8   2   844.50   953.61    15.63 o
  -1   8   2 11743.20 11623.20   127.68 o
   0   8   2  1820.68  1745.71    24.97 o
   1   8   2 16285.50 15749.40   187.50 o
   2   8   2  4355.43  4328.45    56.37 o
   3   8   2  8275.23  8212.81    96.22 o
   4   8   2  1787.69  1796.39    25.44 o
   5   8   2  3210.81  3143.62    40.87 o
   6   8   2  1094.07  1109.99    20.23 o
   7   8   2  6046.68  5939.30    76.39 o
   8   8   2  2764.41  2650.54    54.13 o
   9   8   2   667.16   669.82    26.19 o
 -10   9   2     0.43     5.41    13.94 <
  -9   9   2  3761.05  3665.66    62.73 o
  -8   9   2  1000.51   944.61    23.28 o
  -7   9   2    85.26   106.64    10.69 o
  -6   9   2   189.99   213.96    11.50 o
  -5   9   2   110.33   100.62     9.54 o
  -4   9   2  3530.84  3500.29    45.27 o
  -3   9   2  5711.90  5753.15    65.23 o
  -2   9   2 12259.20 12524.10   140.88 o
  -1   9   2  1884.00  1905.34    25.24 o
   0   9   2  4809.72  4438.68    54.34 o
   1   9   2   575.59   561.69    15.09 o
   2   9   2  7331.28  7443.31    93.92 o
   3   9   2  1656.84  1768.72    27.07 o
   4   9   2  5239.16  5322.60    63.54 o
   5   9   2  6473.13  6395.78    75.31 o
   6   9   2  8327.78  7952.16   106.10 o
   7   9   2   203.65   204.08    12.45 o
   8   9   2  1786.37  1842.14    40.33 o
   9   9   2     8.67    28.42    14.48 <
 -10  10   2  1545.76  1506.11    43.17 o
  -9  10   2   347.34   347.87    19.28 o
  -8  10   2  1853.70  1890.45    36.61 o
  -7  10   2  3629.24  3525.46    50.95 o
  -6  10   2   151.35   172.21    10.62 o
  -5  10   2    25.17    26.39     7.58 o
  -4  10   2  5839.40  6055.55    73.76 o
  -3  10   2  6915.29  6825.05    79.71 o
  -2  10   2   990.44  1095.71    18.34 o
  -1  10   2  9757.13  9895.59   108.06 o
   0  10   2   925.69   973.44    18.47 o
   1  10   2  4295.44  4363.09    58.26 o
   2  10   2  2248.83  2294.01    35.93 o
   3  10   2  5070.29  5142.54    64.96 o
   4  10   2    20.44    29.30     7.38 o
   5  10   2  1581.49  1623.10    24.97 o
   6  10   2  1235.10  1198.02    23.34 o
   7  10   2   908.96   828.23    24.36 o
   8  10   2   219.35   197.79    17.73 o
   9  10   2  1877.16  1803.02    48.99 o
  -9  11   2  2397.62  2402.54    48.31 o
  -8  11   2  3224.77  3237.00    56.57 o
  -7  11   2   112.85   104.48    10.96 o
  -6  11   2   482.71   497.95    15.09 o
  -5  11   2  2082.79  2041.75    30.72 o
  -4  11   2    17.23    16.78     7.58 o
  -3  11   2  4368.91  4408.57    53.66 o
  -2  11   2 15875.10 16179.30   181.48 o
  -1  11   2   626.16   667.73    15.22 o
   0  11   2  1477.67  1530.40    24.56 o
   1  11   2    27.70    37.42     7.92 o
   2  11   2  3290.59  3357.24    47.37 o
   3  11   2  2126.85  2171.53    31.19 o
   4  11   2  5170.16  5258.04    66.79 o
   5  11   2  3181.75  3142.74    43.78 o
   6  11   2   748.77   762.19    18.95 o
   7  11   2   388.59   438.41    19.56 o
   8  11   2   887.98   843.59    28.83 o
  -9  12   2    97.43    75.65    13.94 o
  -8  12   2  1297.02  1321.45    34.98 o
  -7  12   2  1997.65  2066.24    40.19 o
  -6  12   2  1399.66  1396.83    27.47 o
  -5  12   2   512.94   553.44    15.97 o
  -4  12   2  1721.62  1685.29    26.39 o
  -3  12   2  4570.54  4533.27    56.03 o
  -2  12   2  3261.99  3237.54    41.61 o
  -1  12   2  6973.99  7263.19    89.52 o
   0  12   2   481.11   481.78    15.83 o
   1  12   2  1373.87  1353.79    25.04 o
   2  12   2   568.23   590.39    16.78 o
   3  12   2  5695.22  5740.30    72.74 o
   4  12   2  1018.45  1084.62    21.52 o
   5  12   2   605.74   594.72    17.25 o
   6  12   2   856.12   889.81    24.70 o
   7  12   2   264.70   239.06    17.59 o
   8  12   2    45.90    32.82    14.89 o
  -9  13   2  1515.09  1508.27    40.19 o
  -8  13   2   622.87   629.16    24.70 o
  -7  13   2  2517.56  2492.61    47.30 o
  -6  13   2    46.73    54.54    10.69 o
  -5  13   2  2246.15  2260.58    34.64 o
  -4  13   2    41.59    50.14     9.68 o
  -3  13   2  1459.03  1501.44    25.85 o
  -2  13   2  6363.17  6160.16    74.97 o
  -1  13   2   800.19   822.14    20.50 o
   0  13   2   251.74   245.09    12.59 o
   1  13   2   230.48   234.80    11.84 o
   2  13   2     9.67    13.87     8.80 <
   3  13   2    43.91    57.79     9.00 o
   4  13   2  7296.91  7286.33    88.71 o
   5  13   2   293.61   287.38    14.21 o
   6  13   2    73.25    84.99    12.92 o
   7  13   2   289.69   289.00    17.32 o
   8  13   2   481.76   411.54    25.65 o
  -8  14   2  1156.26  1205.54    39.99 o
  -7  14   2   664.58   703.05    29.43 o
  -6  14   2  5650.07  5411.78    81.20 o
  -5  14   2   266.95   267.48    12.99 o
  -4  14   2   285.93   296.51    12.59 o
  -3  14   2     8.69    23.48    10.08 o
  -2  14   2   777.84   782.08    19.49 o
  -1  14   2   763.21   801.77    20.98 o
   0  14   2   413.13   430.49    15.16 o
   1  14   2   562.54   562.98    18.41 o
   2  14   2   146.35   156.31    11.44 o
   3  14   2  2261.72  2286.77    37.01 o
   4  14   2   202.76   225.33    12.79 o
   5  14   2    21.19    37.83    10.42 o
   6  14   2   633.26   599.05    22.06 o
   7  14   2   824.60   776.60    32.82 o
  -7  15   2  2098.43  2092.23    50.41 o
  -6  15   2   448.92   440.84    18.61 o
  -5  15   2  3223.85  3179.82    47.50 o
  -4  15   2   531.14   505.94    17.32 o
  -3  15   2    49.91    64.89    10.83 o
  -2  15   2   140.60   164.83    11.84 o
  -1  15   2  2836.83  2869.84    44.59 o
   0  15   2   656.15   745.27    20.10 o
   1  15   2     3.43     8.26    11.44 <
   2  15   2    67.46    74.84    11.44 o
   3  15   2   923.80   876.95    22.33 o
   4  15   2  1563.17  1538.86    32.61 o
   5  15   2   155.19   120.99    13.33 o
   6  15   2  1179.17  1225.77    35.93 o
   7  15   2  1779.39  1634.00    47.84 o
  -7  16   2   234.50   224.11    22.26 o
  -6  16   2  4795.00  4743.99    79.78 o
  -5  16   2   591.56   631.05    21.04 o
  -4  16   2    89.35    98.45    12.04 o
  -3  16   2    17.67    20.30    10.15 <
  -2  16   2   458.35   514.80    18.07 o
  -1  16   2   189.52   217.61    14.14 o
   0  16   2  2872.86  2721.86    45.27 o
   1  16   2   830.12   818.08    21.45 o
   2  16   2   921.29   875.39    22.53 o
   3  16   2    14.87    29.91    11.50 o
   4  16   2    51.35    44.39    12.11 o
   5  16   2    78.79    67.12    12.52 o
   6  16   2   225.12   219.03    19.08 o
  -6  17   2    55.60    50.07    12.86 o
  -5  17   2  1280.36  1182.05    28.89 o
  -4  17   2   682.96   727.27    24.29 o
  -3  17   2    22.59    20.98    11.16 <
  -2  17   2   498.48   494.03    19.96 o
  -1  17   2  1502.56  1441.89    31.19 o
   0  17   2  1004.06   981.97    26.05 o
   1  17   2    15.67     4.74    11.71 <
   2  17   2   966.34   991.24    28.56 o
   3  17   2   766.82   738.84    23.89 o
   4  17   2   292.99   319.11    21.59 o
   5  17   2   357.90   386.85    24.02 o
  -5  18   2    20.98    29.57    14.21 o
  -4  18   2    32.58    29.64    12.92 o
  -3  18   2   638.33   572.39    24.36 o
  -2  18   2   846.76   805.77    26.52 o
  -1  18   2  1396.85  1378.29    38.98 o
   0  18   2  1113.27  1086.17    32.21 o
   1  18   2   714.94   767.53    26.86 o
   2  18   2   520.14   473.93    20.10 o
   3  18   2  1949.92  1922.25    43.37 o
   4  18   2    32.60    31.74    14.95 o
  -4  19   2   496.71   464.46    26.32 o
  -3  19   2    33.18     9.41    16.71 <
  -2  19   2  2374.92  2319.18    57.92 o
  -1  19   2   423.81   393.61    23.55 o
   0  19   2   331.52   362.62    23.62 o
   1  19   2   250.07   242.04    18.47 o
   2  19   2  1639.78  1434.72    39.31 o
   3  19   2   228.05   184.19    17.05 o
  -1  20   2  2535.25  2630.71    72.88 o
   0  20   2   924.89   898.81    33.70 o
 -11   0   3  3697.19  3615.73   103.12 o
  -9   0   3    76.92    76.46    14.01 o
  -7   0   3 13721.70 13204.90   203.88 o
  -5   0   3  5688.25  5190.85    84.18 o
  -3   0   3  1639.41  1332.41    24.77 o
   1   0   3   797.65  1178.60    39.58 o
   3   0   3  2475.41  2085.26    76.60 o
   5   0   3  5583.52  5488.18   157.73 o
   7   0   3    83.52    99.33    17.39 o
   9   0   3   138.79   169.98    27.20 o
 -11   1   3   173.07   180.53    18.41 o
 -10   1   3   348.68   361.40    19.22 o
  -9   1   3     5.09    -8.32     9.07 <
  -8   1   3  5323.11  5299.12    63.06 o
  -7   1   3   537.30   552.15    14.35 o
  -6   1   3 29770.50 28925.90   302.06 o
  -5   1   3  4717.02  4894.81    54.67 o
  -4   1   3    70.37    47.23     5.89 o
  -3   1   3    47.60    63.00     5.01 o
  -2   1   3 54860.60 53065.20   546.40 o
  -1   1   3 21900.40 22986.90   252.05 o
   0   1   3 37749.50 37151.40   397.33 o
   1   1   3   133.57   159.76     6.02 o
   2   1   3   325.05   441.05    15.63 o
   3   1   3  3369.64  3515.72    73.15 o
   4   1   3 15055.20 14914.90   257.88 o
   5   1   3    27.06    27.61    10.08 o
   6   1   3   857.67   896.71    23.75 o
   7   1   3   164.28   163.41    13.47 o
   8   1   3   939.41   861.72    28.28 o
   9   1   3   675.88   660.69    25.78 o
  10   1   3   714.70   721.93    27.13 o
 -11   2   3  2443.85  2455.39    53.19 o
 -10   2   3  1103.42  1087.05    32.82 o
  -9   2   3   301.48   291.17    13.40 o
  -8   2   3    23.89    26.32     8.86 o
  -7   2   3  7805.72  7600.37    90.27 o
  -6   2   3  1695.02  1666.88    24.90 o
  -5   2   3  9093.73  8790.34    95.34 o
  -4   2   3  3035.66  3030.21    34.85 o
  -3   2   3  2753.86  2380.49    28.22 o
  -2   2   3 22016.30 22276.70   235.34 o
  -1   2   3 42536.50 40914.00   447.00 o
   0   2   3  4928.30  5352.64    56.77 o
   1   2   3  1875.08  1651.39    23.75 o
   2   2   3  1431.35  1351.63    24.97 o
   3   2   3  2752.14  2693.71    46.28 o
   4   2   3  5369.95  5381.33    81.61 o
   5   2   3 16115.70 16048.40   264.23 o
   6   2   3    79.60    84.24    11.16 o
   7   2   3   601.17   636.94    21.18 o
   8   2   3  1872.16  1841.73    44.39 o
   9   2   3    79.33   103.39    16.10 o
  10   2   3   629.70   618.06    27.40 o
 -11   3   3  2954.96  2752.17    58.73 o
 -10   3   3   357.74   366.68    20.71 o
  -9   3   3    74.39    67.60    10.29 o
  -8   3   3  2641.99  2502.82    36.47 o
  -7   3   3  2055.59  2044.86    30.99 o
  -6   3   3 12405.50 12295.70   139.87 o
  -5   3   3  9592.16  9760.19   107.32 o
  -4   3   3  4337.92  4041.07    45.88 o
  -3   3   3  4795.77  4742.70    51.16 o
  -2   3   3  3388.97  2761.85    32.61 o
  -1   3   3   537.58   487.67     9.68 o
   0   3   3 22097.30 21522.90   231.55 o
   1   3   3   223.73   219.91     6.16 o
   2   3   3   891.74   766.32    15.02 o
   3   3   3 23135.60 23707.10   341.31 o
   4   3   3  3389.91  3329.43    52.91 o
   5   3   3    29.37    45.34     8.12 o
   6   3   3  1457.27  1438.85    28.76 o
   7   3   3   736.49   700.48    19.62 o
   8   3   3   226.08   223.16    14.55 o
   9   3   3  4613.36  4378.46    82.21 o
  10   3   3   344.22   344.28    25.31 o
 -11   4   3   703.98   723.08    27.81 o
 -10   4   3  5182.48  5017.42    85.19 o
  -9   4   3    39.97    43.78    10.15 o
  -8   4   3  3811.18  3751.33    49.53 o
  -7   4   3  3519.25  3537.98    47.16 o
  -6   4   3  5755.93  5748.76    70.44 o
  -5   4   3  3433.64  3302.70    40.26 o
  -4   4   3   201.17   205.03     7.44 o
  -3   4   3  7869.31  7771.70    81.61 o
  -2   4   3  8207.54  7879.69    85.39 o
  -1   4   3  3415.00  3109.92    36.07 o
   0   4   3  1487.59  1622.29    20.44 o
   1   4   3  6442.00  6137.83    69.36 o
   2   4   3  7039.85  7403.12    93.99 o
   3   4   3  4246.54  4208.75    60.36 o
   4   4   3  9487.40  8889.87   112.93 o
   5   4   3  2821.39  2885.81    40.94 o
   6   4   3    97.60   122.75     9.54 o
   7   4   3   122.49   126.47    12.11 o
   8   4   3  5318.97  5389.99    86.07 o
   9   4   3   271.96   307.54    16.24 o
  10   4   3  3056.88  3067.23    75.92 o
 -11   5   3  3392.64  3251.55    65.84 o
 -10   5   3   656.33   674.22    25.71 o
  -9   5   3    95.19   104.75    10.76 o
  -8   5   3   877.81   942.72    20.16 o
  -7   5   3   282.11   317.22    11.77 o
  -6   5   3  2960.14  2920.12    40.46 o
  -5   5   3 10622.80 10899.10   119.09 o
  -4   5   3  3014.39  2794.33    32.82 o
  -3   5   3  4322.03  4187.77    47.03 o
  -2   5   3  2999.12  2882.77    32.48 o
  -1   5   3   217.55   174.58     5.95 o
   0   5   3   140.99   107.05     5.48 o
   1   5   3   282.59   341.64     8.73 o
   2   5   3  8473.87  8655.14   101.57 o
   3   5   3 23934.40 24010.60   297.19 o
   4   5   3     6.96    11.98     6.63 <
   5   5   3   603.89   663.06    15.36 o
   6   5   3   517.64   510.20    15.02 o
   7   5   3   246.82   278.99    13.33 o
   8   5   3   516.00   507.36    18.68 o
   9   5   3  8999.74  8961.73   143.18 o
  10   5   3   177.59   223.23    19.69 o
 -11   6   3    14.82    17.32    15.29 <
 -10   6   3  3578.64  3556.18    65.70 o
  -9   6   3  2157.16  2145.41    37.83 o
  -8   6   3   334.28   326.08    13.60 o
  -7   6   3     7.38    36.74     8.19 o
  -6   6   3  1159.48  1172.45    21.31 o
  -5   6   3   399.97   407.69    11.77 o
  -4   6   3   175.94   166.53     7.17 o
  -3   6   3  5252.30  5315.29    58.67 o
  -2   6   3 11290.90 11780.50   124.37 o
  -1   6   3   346.08   376.42     9.47 o
   0   6   3   284.47   297.12     8.46 o
   1   6   3  1184.56  1145.45    17.66 o
   2   6   3  3742.34  3405.01    42.63 o
   3   6   3  6029.94  6319.52    79.64 o
   4   6   3 14991.80 15102.70   180.40 o
   5   6   3   649.92   599.59    16.04 o
   6   6   3   241.38   291.30    11.44 o
   7   6   3   892.26   948.41    23.14 o
   8   6   3  8642.78  8397.20   126.26 o
   9   6   3   192.27   234.66    19.01 o
 -11   7   3  2309.17  2203.20    51.09 o
 -10   7   3   886.16   828.84    29.16 o
  -9   7   3  1938.03  1860.13    37.35 o
  -8   7   3    30.07    26.59     9.88 o
  -7   7   3   281.64   309.57    11.91 o
  -6   7   3   674.90   703.72    17.25 o
  -5   7   3  2230.83  2193.79    29.50 o
  -4   7   3  5846.68  6115.03    67.67 o
  -3   7   3  1041.03  1037.72    15.70 o
  -2   7   3   766.92   907.47    14.89 o
  -1   7   3   229.76   176.88     7.04 o
   0   7   3    27.81    42.29     6.23 o
   1   7   3    28.92    86.07     6.50 o
   2   7   3  2560.64  2588.90    37.83 o
   3   7   3 16496.80 17029.30   193.39 o
   4   7   3  1260.30  1256.96    20.50 o
   5   7   3  1466.51  1462.60    24.77 o
   6   7   3   429.15   433.81    14.28 o
   7   7   3  1939.69  1844.03    32.82 o
   8   7   3   846.50   833.44    24.29 o
   9   7   3  7387.24  7423.82   132.02 o
 -10   8   3  1886.49  1778.66    42.63 o
  -9   8   3   936.73   881.82    28.22 o
  -8   8   3   250.84   245.83    13.06 o
  -7   8   3  3519.54  3377.95    43.58 o
  -6   8   3   666.12   644.99    16.58 o
  -5   8   3   218.17   276.35    10.76 o
  -4   8   3   248.17   290.76    10.08 o
  -3   8   3  1491.15  1514.63    21.11 o
  -2   8   3 10063.30 10726.20   116.45 o
  -1   8   3 14727.00 15040.10   175.52 o
   0   8   3   958.84   920.12    17.05 o
   1   8   3  1755.54  1945.26    28.35 o
   2   8   3  7306.68  7375.65    91.15 o
   3   8   3    34.55    38.70     6.70 o
   4   8   3  4674.41  4821.67    57.85 o
   5   8   3  1871.60  1935.04    29.03 o
   6   8   3  6494.08  6255.37    87.42 o
   7   8   3  1143.90  1072.84    24.43 o
   8   8   3  3279.54  3146.19    57.38 o
   9   8   3   268.30   279.19    25.04 o
 -10   9   3   425.19   384.21    22.53 o
  -9   9   3  1169.87  1162.97    32.41 o
  -8   9   3    49.14    50.68    11.98 o
  -7   9   3   795.59   821.94    19.42 o
  -6   9   3  9558.39  9646.04   110.36 o
  -5   9   3   371.95   395.10    12.11 o
  -4   9   3  1109.80  1114.93    19.01 o
  -3   9   3   304.51   327.03     9.81 o
  -2   9   3  1560.84  1468.62    22.80 o
  -1   9   3     1.33     8.39     6.16 <
   0   9   3  4808.45  4974.39    61.10 o
   1   9   3  4341.22  4204.76    54.74 o
   2   9   3   599.94   592.89    14.14 o
   3   9   3  2501.92  2555.00    38.10 o
   4   9   3  2290.67  2321.68    30.99 o
   5   9   3  3570.62  3642.32    49.67 o
   6   9   3     2.53    24.70     9.07 o
   7   9   3  3669.15  3561.52    58.94 o
   8   9   3  1040.94  1041.58    31.40 o
   9   9   3   911.35   842.64    28.56 o
 -10  10   3   185.59   211.52    21.25 o
  -9  10   3    23.58    46.22    13.33 o
  -8  10   3  1397.55  1353.59    30.72 o
  -7  10   3  2666.48  2551.61    41.82 o
  -6  10   3     6.31    19.42     9.07 o
  -5  10   3  2598.41  2653.86    37.55 o
  -4  10   3    35.26    38.23     7.98 o
  -3  10   3   206.48   220.66     9.74 o
  -2  10   3     8.00     7.78     6.63 <
  -1  10   3 20533.70 20737.40   231.08 o
   0  10   3  2701.58  2760.63    37.01 o
   1  10   3     7.31    16.51     7.04 o
   2  10   3  3924.18  4059.41    52.64 o
   3  10   3     5.28     7.31     7.51 <
   4  10   3   703.75   682.55    16.44 o
   5  10   3  4940.19  4896.91    62.25 o
   6  10   3  5064.46  5143.82    71.12 o
   7  10   3   557.11   553.37    22.06 o
   8  10   3  1029.77  1010.05    33.22 o
  -9  11   3  1031.57  1057.14    32.61 o
  -8  11   3   858.10   881.48    26.66 o
  -7  11   3  1297.14  1227.86    25.98 o
  -6  11   3  6136.31  6147.65    76.39 o
  -5  11   3  3220.18  3218.32    42.29 o
  -4  11   3   954.18   989.00    19.15 o
  -3  11   3   305.01   319.18    11.10 o
  -2  11   3  4602.26  4564.13    55.22 o
  -1  11   3    96.81    99.47     8.53 o
   0  11   3  5357.21  5365.90    65.03 o
   1  11   3  1210.46  1241.47    22.80 o
   2  11   3   118.87   127.96     9.61 o
   3  11   3    64.82    79.58     8.59 o
   4  11   3  5539.47  5501.03    68.07 o
   5  11   3  6100.79  5929.97    75.38 o
   6  11   3   300.57   350.44    16.31 o
   7  11   3  2997.62  2970.26    51.43 o
   8  11   3   583.79   590.39    27.95 o
  -9  12   3   310.93   340.43    21.31 o
  -8  12   3  2709.19  2682.00    50.07 o
  -7  12   3  4755.54  4709.07    72.94 o
  -6  12   3   113.93   107.32    11.71 o
  -5  12   3  2413.36  2416.69    34.92 o
  -4  12   3    49.10    77.68     9.27 o
  -3  12   3  2204.74  2210.64    31.60 o
  -2  12   3   619.65   646.75    15.70 o
  -1  12   3  5654.41  5712.76    69.36 o
   0  12   3  3862.68  3959.33    52.85 o
   1  12   3  1079.21  1078.39    22.40 o
   2  12   3    17.76    20.84     8.80 o
   3  12   3  3228.00  3243.63    44.93 o
   4  12   3    14.03    20.57     8.73 o
   5  12   3  2953.84  2924.59    42.29 o
   6  12   3  3611.66  3544.61    59.55 o
   7  12   3     2.36    21.72    10.89 <
   8  12   3   103.01    96.42    17.46 o
  -9  13   3   276.12   282.37    23.89 o
  -8  13   3  2333.37  2376.36    47.98 o
  -7  13   3  1203.63  1186.79    29.71 o
  -6  13   3  4155.63  4148.12    60.22 o
  -5  13   3  2097.17  2113.48    33.29 o
  -4  13   3  1175.54  1171.30    22.47 o
  -3  13   3   623.67   596.34    16.71 o
  -2  13   3  6821.45  6932.71    79.64 o
  -1  13   3     1.13    -8.26     8.12 <
   0  13   3  4194.28  4317.56    58.80 o
   1  13   3  3436.26  3446.49    48.31 o
   2  13   3  2339.74  2301.25    35.93 o
   3  13   3  1047.39  1037.79    21.65 o
   4  13   3  1557.25  1463.54    26.73 o
   5  13   3  1099.58  1038.87    25.85 o
   6  13   3   221.49   252.05    16.78 o
   7  13   3  1295.37  1264.07    34.71 o
  -8  14   3   990.68   970.40    30.92 o
  -7  14   3  1878.52  1822.38    41.48 o
  -6  14   3   134.55   125.52    12.92 o
  -5  14   3  3124.96  3160.60    47.30 o
  -4  14   3   694.77   715.03    17.66 o
  -3  14   3  4451.71  4601.68    58.46 o
  -2  14   3  1766.86  1686.03    30.92 o
  -1  14   3  2142.45  2114.83    33.02 o
   0  14   3  2076.09  2148.39    35.32 o
   1  14   3  3975.50  3981.19    56.77 o
   2  14   3   461.20   468.86    17.05 o
   3  14   3  2739.50  2679.77    42.22 o
   4  14   3   681.97   652.98    19.15 o
   5  14   3    97.71    96.29    12.65 o
   6  14   3  1871.79  1744.83    42.29 o
   7  14   3   894.69   825.59    29.37 o
  -7  15   3    91.62    79.24    14.89 o
  -6  15   3  1669.84  1592.65    33.36 o
  -5  15   3  1062.86  1076.77    24.02 o
  -4  15   3  7294.94  7298.78    94.66 o
  -3  15   3  1076.10  1098.28    23.21 o
  -2  15   3  2239.38  2292.72    38.03 o
  -1  15   3   360.15   380.82    16.44 o
   0  15   3  2672.11  2715.90    44.39 o
   1  15   3  1338.51  1308.66    28.42 o
   2  15   3  5335.99  5257.91    71.12 o
   3  15   3   893.72   882.09    24.70 o
   4  15   3   466.71   500.73    20.57 o
   5  15   3     9.02    -1.69    11.10 <
   6  15   3    40.97    29.03    14.55 <
  -7  16   3   407.30   454.65    25.44 o
  -6  16   3   540.92   517.44    21.52 o
  -5  16   3  3683.52  3661.74    59.34 o
  -4  16   3    15.79    19.28    10.96 <
  -3  16   3  6120.70  5914.54    82.15 o
  -2  16   3   766.25   805.97    23.21 o
  -1  16   3   107.19   115.24    12.65 o
   0  16   3  2103.48  2023.75    37.96 o
   1  16   3  4673.22  4761.99    72.47 o
   2  16   3   342.08   383.06    17.39 o
   3  16   3  2381.73  2469.13    51.22 o
   4  16   3   375.51   396.93    20.98 o
   5  16   3    28.93    17.46    13.33 <
  -6  17   3   567.89   534.90    26.59 o
  -5  17   3    42.88    71.39    13.87 o
  -4  17   3  6452.97  6321.41    94.94 o
  -3  17   3   625.44   600.06    21.92 o
  -2  17   3  1309.47  1230.50    31.60 o
  -1  17   3     0.34    16.31    12.38 <
   0  17   3   631.47   625.10    22.26 o
   1  17   3   266.51   281.62    17.05 o
   2  17   3  5189.97  5045.10    78.02 o
   3  17   3   499.03   544.44    25.37 o
   4  17   3    92.58    35.46    13.60 o
   5  17   3   902.49   939.54    34.24 o
  -5  18   3   782.29   756.64    27.81 o
  -4  18   3    14.68    -1.08    12.59 <
  -3  18   3  5554.33  5454.61    99.60 o
  -2  18   3     5.21    -6.50    14.89 <
  -1  18   3    20.57    26.66    14.35 <
   0  18   3   217.40   194.61    19.49 o
   1  18   3  1321.82  1322.66    35.39 o
   2  18   3   698.08   735.73    28.08 o
   3  18   3  2007.98  1923.81    46.96 o
   4  18   3   517.70   509.80    71.79 o
  -3  19   3    65.53    35.32    15.90 o
  -2  19   3   467.00   469.67    28.08 o
  -1  19   3   102.92   101.90    19.62 o
   0  19   3   125.75   127.68    17.32 o
   1  19   3  1191.77  1182.80    34.44 o
   2  19   3  1694.55  1551.65    43.04 o
 -10   0   4  3151.44  3109.45    97.98 o
  -8   0   4    89.28    92.36    12.59 o
  -6   0   4  1458.93  1462.53    31.13 o
  -4   0   4 11684.30 11168.90   165.04 o
  -2   0   4   623.46   476.43    14.68 o
   0   0   4  2604.63  2242.38    38.03 o
   2   0   4 37056.80 35818.00   963.36 o
   4   0   4  1465.73  1519.44    48.65 o
   6   0   4  3330.67  3423.89    89.66 o
   8   0   4  8326.36  8504.85   224.18 o
  10   0   4    36.95    29.30    30.25 <
 -11   1   4   130.67   147.58    17.86 o
 -10   1   4    40.03    33.83    12.38 o
  -9   1   4  3275.16  3215.62    49.19 o
  -8   1   4   714.20   718.14    16.44 o
  -7   1   4  2131.79  2087.29    29.03 o
  -6   1   4   366.83   416.01    11.98 o
  -5   1   4  8949.11  8904.02    94.60 o
  -4   1   4   441.09   398.48    10.01 o
  -3   1   4 22848.10 22506.70   234.46 o
  -2   1   4  1228.86  1202.49    16.51 o
  -1   1   4  6344.81  6185.40    71.66 o
   0   1   4  3027.13  3291.47    37.55 o
   1   1   4 16989.90 16377.00   208.34 o
   2   1   4   709.93   746.29    20.98 o
   3   1   4 12641.70 12577.10   262.95 o
   4   1   4   504.34   515.95    18.88 o
   5   1   4  3884.75  3850.46    72.27 o
   6   1   4  1382.90  1342.15    31.26 o
   7   1   4 13174.20 13383.00   225.73 o
   8   1   4   112.46   112.19    15.43 o
   9   1   4   587.56   620.56    27.34 o
  10   1   4    18.66    16.31    17.32 <
 -11   2   4   106.05   121.12    16.98 o
 -10   2   4  1032.06   990.97    32.21 o
  -9   2   4  2854.60  2778.83    43.04 o
  -8   2   4   176.95   166.53    10.69 o
  -7   2   4  3793.53  3747.47    46.62 o
  -6   2   4    80.79   117.81     7.92 o
  -5   2   4    15.33    17.93     6.02 o
  -4   2   4 18939.60 18119.00   186.62 o
  -3   2   4  9309.47  9260.07    98.79 o
  -2   2   4  3812.39  3689.75    42.29 o
  -1   2   4    73.89   127.55     5.41 o
   0   2   4  8849.71  8427.11    90.40 o
   1   2   4   655.87   699.80    12.32 o
   2   2   4 14863.50 14060.20   220.93 o
   3   2   4  6126.06  6368.31   119.57 o
   4   2   4  1603.34  1568.16    32.61 o
   5   2   4    51.49    48.79    10.35 o
   6   2   4  6603.85  6522.99   105.83 o
   7   2   4   448.48   493.96    21.59 o
   8   2   4  6673.19  7064.65   131.20 o
   9   2   4    16.77    22.19    15.09 <
 -11   3   4    58.77    76.60    14.62 o
 -10   3   4   130.80   104.75    14.21 o
  -9   3   4   124.75   114.36    11.50 o
  -8   3   4  6186.13  6169.71    74.77 o
  -7   3   4   242.79   244.61    11.77 o
  -6   3   4    21.03    25.17     7.24 o
  -5   3   4  6564.61  6378.79    72.47 o
  -4   3   4  4312.09  4163.01    48.58 o
  -3   3   4  7603.19  7432.96    81.67 o
  -2   3   4  3262.09  2924.72    34.98 o
  -1   3   4  1263.44  1111.41    15.29 o
   0   3   4  2328.40  2460.20    28.08 o
   1   3   4 27798.30 28880.00   310.05 o
   2   3   4   259.39   256.18     9.68 o
   3   3   4  6719.31  6449.91    97.03 o
   4   3   4  2015.71  2100.62    34.51 o
   5   3   4  2682.76  2616.03    47.23 o
   6   3   4  3938.54  3878.40    70.44 o
   7   3   4  5448.69  5456.98    91.28 o
   8   3   4   278.53   338.33    19.69 o
   9   3   4   816.54   792.30    37.69 o
 -11   4   4    86.13    64.55    15.22 o
 -10   4   4     6.22     4.13    11.57 <
  -9   4   4  8405.30  8234.94   117.47 o
  -8   4   4    36.45    47.16     9.68 o
  -7   4   4  8329.85  8260.31    94.06 o
  -6   4   4   579.08   579.63    14.48 o
  -5   4   4    33.53    23.75     6.16 o
  -4   4   4  2658.55  2523.46    30.58 o
  -3   4   4 17632.40 17431.30   179.32 o
  -2   4   4   281.31   205.23     7.04 o
  -1   4   4   737.93   721.18    12.52 o
   0   4   4  5530.38  5150.18    60.43 o
   1   4   4   663.65   867.95    14.35 o
   2   4   4 12228.10 12329.70   163.62 o
   3   4   4  3579.63  3691.44    54.61 o
   4   4   4  4166.13  4083.09    60.56 o
   5   4   4  1748.02  1771.09    31.40 o
   6   4   4   985.45   988.33    22.67 o
   7   4   4  2900.54  2803.19    53.86 o
   8   4   4  1897.40  1959.74    46.89 o
   9   4   4   375.47   327.16    22.60 o
 -11   5   4    18.72    14.35    14.35 <
 -10   5   4  1465.01  1422.81    37.35 o
  -9   5   4   157.49   168.15    12.45 o
  -8   5   4  8234.66  8212.74   100.01 o
  -7   5   4  2740.76  2755.96    37.89 o
  -6   5   4    93.69   113.61     8.59 o
  -5   5   4   124.18   115.30     8.12 o
  -4   5   4 10639.50 10743.60   112.80 o
  -3   5   4     1.33    11.16     5.41 o
  -2   5   4 20989.90 20605.30   218.76 o
  -1   5   4  9458.46  9557.53   109.96 o
   0   5   4   395.23   466.15    10.22 o
   1   5   4  2666.48  2664.01    32.82 o
   2   5   4  1189.21  1160.33    19.08 o
   3   5   4  3130.23  3298.78    44.19 o
   4   5   4  1691.43  1762.36    28.35 o
   5   5   4   457.12   501.20    14.41 o
   6   5   4  5542.82  5565.86    77.34 o
   7   5   4   408.31   431.51    16.44 o
   8   5   4    30.96    35.32    15.09 o
   9   5   4   663.67   667.05    29.84 o
 -11   6   4   108.43   120.92    20.98 o
 -10   6   4   721.50   655.21    25.92 o
  -9   6   4  6255.35  6176.68    86.95 o
  -8   6   4   277.31   293.13    13.47 o
  -7   6   4  8466.74  8567.65    99.40 o
  -6   6   4  2902.66  2948.81    39.92 o
  -5   6   4  1337.35  1321.79    20.84 o
  -4   6   4  1325.08  1315.15    19.42 o
  -3   6   4 12290.10 11559.20   122.81 o
  -2   6   4  1758.29  1610.18    21.72 o
  -1   6   4   232.90   205.98     7.71 o
   0   6   4   201.15   180.87     7.04 o
   1   6   4   151.92   149.81     6.97 o
   2   6   4    30.22    62.18     6.83 o
   3   6   4  4711.96  4802.72    64.55 o
   4   6   4  3080.19  3168.32    44.59 o
   5   6   4  4329.42  4227.42    55.15 o
   6   6   4    48.72    78.42    11.10 o
   7   6   4  1603.01  1583.92    31.94 o
   8   6   4    20.10    35.73    11.91 o
   9   6   4    15.31    17.46    18.81 <
 -11   7   4    31.38    17.39    15.50 <
 -10   7   4  1951.06  2037.83    46.89 o
  -9   7   4   162.32   171.26    14.01 o
  -8   7   4  8048.25  8125.25   104.14 o
  -7   7   4  2589.99  2643.77    37.55 o
  -6   7   4  2916.76  2916.94    38.70 o
  -5   7   4   943.18   937.24    17.39 o
  -4   7   4  6387.07  6272.08    69.76 o
  -3   7   4   550.92   681.67    13.53 o
  -2   7   4  9905.23  9709.98   108.06 o
  -1   7   4  7975.29  8177.01    91.42 o
   0   7   4    10.07    16.10     5.68 o
   1   7   4  1326.00  1304.26    20.44 o
   2   7   4  1549.74  1522.28    22.13 o
   3   7   4     1.30    16.31     6.36 o
   4   7   4  1108.44  1059.92    21.18 o
   5   7   4   767.44   812.87    19.22 o
   6   7   4   893.03   899.48    19.01 o
   7   7   4   809.76   864.77    21.86 o
   8   7   4    11.68    26.86    12.38 o
   9   7   4   220.77   206.99    17.73 o
 -10   8   4   973.04   989.68    32.89 o
  -9   8   4  5374.82  5382.28    88.44 o
  -8   8   4   503.57   500.12    16.10 o
  -7   8   4  1705.26  1702.07    27.95 o
  -6   8   4   227.70   260.65    11.64 o
  -5   8   4  5686.56  5654.29    64.42 o
  -4   8   4  3001.69  2960.25    37.49 o
  -3   8   4  4665.66  4544.30    52.91 o
  -2   8   4    21.71    24.09     5.95 o
  -1   8   4  1022.96   908.35    17.12 o
   0   8   4   420.20   473.46    12.38 o
   1   8   4     2.87     9.81     6.29 <
   2   8   4  8702.53  8863.21   108.40 o
   3   8   4   506.18   477.86    12.65 o
   4   8   4  1837.79  1795.99    28.08 o
   5   8   4   405.06   468.18    14.89 o
   6   8   4   101.90   123.29    10.22 o
   7   8   4  1378.87  1248.91    27.27 o
   8   8   4  1796.63  1703.62    36.40 o
   9   8   4   261.87   271.20    20.30 o
 -10   9   4  3861.31  3976.25    76.12 o
  -9   9   4   434.64   455.53    21.59 o
  -8   9   4  2319.09  2351.19    40.26 o
  -7   9   4   783.41   826.88    19.96 o
  -6   9   4   922.30   941.16    20.10 o
  -5   9   4  2861.45  2823.56    35.80 o
  -4   9   4  4838.71  4864.57    57.52 o
  -3   9   4  1552.30  1496.36    21.86 o
  -2   9   4  2027.74  1925.30    27.27 o
  -1   9   4  3038.35  3186.18    42.56 o
   0   9   4  4292.15  4446.93    55.42 o
   1   9   4  6816.63  6751.43    80.66 o
   2   9   4    26.23    33.36     7.31 o
   3   9   4   705.30   707.72    17.25 o
   4   9   4    19.10    24.77     7.58 o
   5   9   4   859.19   848.73    21.65 o
   6   9   4     0.05    -0.68     9.47 <
   7   9   4  4654.96  4478.40    76.26 o
   8   9   4  1039.05  1013.16    28.42 o
 -10  10   4  1085.33  1085.70    38.16 o
  -9  10   4  2810.81  2791.89    57.31 o
  -8  10   4     5.72    16.24    11.16 <
  -7  10   4  2354.46  2437.66    38.84 o
  -6  10   4    36.11    42.63     9.34 o
  -5  10   4  5151.96  5173.12    61.98 o
  -4  10   4  5071.12  5067.43    58.94 o
  -3  10   4   538.35   582.67    15.02 o
  -2  10   4    24.01    30.65     7.31 o
  -1  10   4  4949.75  5054.64    62.73 o
   0  10   4   611.62   642.01    16.10 o
   1  10   4  3293.58  3277.94    43.44 o
   2  10   4 10922.60 10618.60   127.08 o
   3  10   4  3979.60  3993.23    54.47 o
   4  10   4    42.65    65.97     8.86 o
   5  10   4    55.82    63.13     9.13 o
   6  10   4  1075.74  1109.58    29.37 o
   7  10   4   191.80   201.78    15.36 o
   8  10   4  2171.09  2133.10    60.43 o
  -9  11   4   848.85   826.40    31.67 o
  -8  11   4   127.61   129.99    14.14 o
  -7  11   4   414.10   400.11    15.63 o
  -6  11   4  2927.07  3048.48    44.59 o
  -5  11   4  2253.97  2272.15    35.46 o
  -4  11   4  2548.51  2502.55    35.93 o
  -3  11   4  2394.54  2399.97    33.90 o
  -2  11   4    23.43    39.11     8.12 o
  -1  11   4  1110.11  1161.69    21.72 o
   0  11   4  2952.38  2975.13    40.06 o
   1  11   4  4832.21  4917.55    63.20 o
   2  11   4     6.71    10.15     7.85 <
   3  11   4  1342.41  1354.94    25.58 o
   4  11   4   581.40   606.08    16.71 o
   5  11   4   842.54   764.49    19.96 o
   6  11   4   918.80   879.52    25.51 o
   7  11   4  3524.86  3431.88    63.06 o
   8  11   4  2218.47  2099.94    50.75 o
  -9  12   4   153.41   148.05    17.19 o
  -8  12   4     0.41     9.74    12.86 <
  -7  12   4   971.20  1026.15    26.19 o
  -6  12   4    35.52    47.84    10.69 o
  -5  12   4  5035.76  5201.20    65.43 o
  -4  12   4  3238.10  3386.00    46.55 o
  -3  12   4    29.33    42.22     8.80 o
  -2  12   4  1133.34  1146.46    23.14 o
  -1  12   4  2440.18  2513.65    35.52 o
   0  12   4  5590.05  5704.03    71.39 o
   1  12   4  2059.54  2045.34    33.36 o
   2  12   4  2003.58  1997.50    31.40 o
   3  12   4  2843.96  2764.08    43.98 o
   4  12   4  3369.18  3316.71    48.31 o
   5  12   4   234.99   230.47    14.07 o
   6  12   4  1609.34  1565.99    36.74 o
   7  12   4     2.86    -0.95    12.86 <
  -9  13   4    20.33    25.65    15.83 <
  -8  13   4   491.29   484.83    22.40 o
  -7  13   4   126.31   137.36    13.74 o
  -6  13   4  2326.76  2327.16    39.25 o
  -5  13   4  1056.63  1113.24    23.62 o
  -4  13   4    28.48    26.32    10.76 o
  -3  13   4   847.24   938.53    21.04 o
  -2  13   4   916.66   935.48    21.65 o
  -1  13   4  6381.86  6368.51    77.48 o
   0  13   4  3306.27  3350.61    48.04 o
   1  13   4  3511.35  3446.97    49.13 o
   2  13   4    76.26    75.11    11.16 o
   3  13   4  7395.85  7398.45    96.76 o
   4  13   4   675.81   633.22    19.42 o
   5  13   4  2318.92  2268.77    46.35 o
   6  13   4   850.61   839.87    28.35 o
   7  13   4  1066.82   974.73    37.49 o
  -8  14   4   158.39   119.36    15.90 o
  -7  14   4     3.30    15.63    12.04 <
  -6  14   4  1825.89  1793.28    34.64 o
  -5  14   4  2547.89  2445.92    39.58 o
  -4  14   4   146.61   157.46    11.71 o
  -3  14   4  2219.39  2210.03    33.02 o
  -2  14   4  1711.13  1788.14    29.91 o
  -1  14   4   416.11   411.20    14.82 o
   0  14   4  4612.93  4597.02    64.82 o
   1  14   4   385.82   402.21    16.44 o
   2  14   4  3327.93  3203.23    52.03 o
   3  14   4  1404.32  1410.09    31.94 o
   4  14   4  5609.40  5488.58    90.88 o
   5  14   4   135.81   125.66    13.06 o
   6  14   4   961.51   928.10    32.68 o
  -7  15   4  1566.21  1621.54    39.86 o
  -6  15   4   439.83   430.08    18.47 o
  -5  15   4    30.83    49.94    11.44 o
  -4  15   4   189.53   190.82    12.79 o
  -3  15   4  1229.46  1171.09    25.85 o
  -2  15   4   846.91   858.41    22.33 o
  -1  15   4  8801.49  8829.65   112.73 o
   0  15   4   449.26   433.54    18.95 o
   1  15   4  1409.58  1434.72    30.79 o
   2  15   4   106.17   107.79    14.01 o
   3  15   4  3013.67  2988.06    53.66 o
   4  15   4     5.74    15.02    11.44 <
   5  15   4  3572.93  3342.83    60.70 o
   6  15   4   594.01   625.23    27.20 o
  -7  16   4   154.32   182.49    17.80 o
  -6  16   4  2462.64  2427.58    45.47 o
  -5  16   4    59.07    65.50    13.40 o
  -4  16   4   174.57   189.13    13.33 o
  -3  16   4   395.75   378.73    16.24 o
  -2  16   4  2447.04  2423.72    44.73 o
  -1  16   4   642.39   642.49    20.10 o
   0  16   4  1882.38  1887.40    36.61 o
   1  16   4     2.58    14.55    11.71 <
   2  16   4   533.36   517.44    23.28 o
   3  16   4    53.74    45.61    13.40 o
   4  16   4  4344.14  4139.19    75.72 o
   5  16   4    17.95     9.20    13.06 <
  -6  17   4   223.19   207.60    16.17 o
  -5  17   4   236.99   229.66    17.80 o
  -4  17   4   180.10   153.80    14.82 o
  -3  17   4   273.71   247.39    16.38 o
  -2  17   4    53.84    44.39    13.74 o
  -1  17   4  6333.11  6316.88    92.03 o
   0  17   4   230.53   210.30    17.05 o
   1  17   4   505.28   495.04    22.47 o
   2  17   4     4.01     2.23    12.72 <
   3  17   4  1173.01  1145.24    36.34 o
   4  17   4    32.02    42.16    13.67 o
  -5  18   4  1137.13  1018.71    33.77 o
  -4  18   4    40.54    38.30    14.75 o
  -3  18   4   133.38   116.93    15.29 o
  -2  18   4  1994.59  1969.55    46.76 o
  -1  18   4  1059.01  1055.79    32.21 o
   0  18   4  1294.12  1243.02    38.30 o
   1  18   4   116.57    92.36    16.10 o
   2  18   4     9.12    26.19    14.48 <
   3  18   4    11.64     9.61    14.55 <
  -3  19   4   107.16    81.00    18.00 o
  -2  19   4   122.66   162.74    18.81 o
  -1  19   4  2947.56  2750.41    60.97 o
   0  19   4   928.15   867.61    32.89 o
   1  19   4   198.33   186.55    19.96 o
 -11   0   5  3180.35  3243.36    96.56 o
  -9   0   5  4273.55  4241.16    81.94 o
  -7   0   5  1403.13  1453.26    32.61 o
  -5   0   5  6767.88  6984.67   106.98 o
  -3   0   5   222.78   247.73    11.91 o
  -1   0   5  3704.94  3392.36    53.19 o
   1   0   5  1910.92  2043.71    42.16 o
   3   0   5  4550.12  4703.32   139.66 o
   5   0   5 12324.80 12401.30   284.26 o
   7   0   5    80.53    51.56    19.96 o
   9   0   5  5770.01  5639.54   176.20 o
 -11   1   5   317.79   357.55    23.62 o
 -10   1   5  7629.53  7628.99   118.42 o
  -9   1   5    85.84    84.38    10.29 o
  -8   1   5  1710.43  1747.88    26.46 o
  -7   1   5    28.35    23.48     8.12 o
  -6   1   5   407.80   383.06    11.57 o
  -5   1   5   458.89   465.00    11.57 o
  -4   1   5  4915.85  4510.54    51.56 o
  -3   1   5   412.38   458.98    10.83 o
  -2   1   5  1261.24  1152.21    16.78 o
  -1   1   5    66.44    47.37     4.87 o
   0   1   5     0.08    27.74     4.40 o
   1   1   5   599.54   547.01    12.72 o
   2   1   5   550.64   698.04    19.96 o
   3   1   5    49.86    51.63    13.13 o
   4   1   5 30002.00 30006.10   514.53 o
   5   1   5  2128.86  2224.04    48.11 o
   6   1   5   818.23   890.82    28.83 o
   7   1   5    13.43    36.20    16.44 o
   8   1   5  1321.61  1346.75    44.93 o
   9   1   5   604.25   601.21    33.49 o
 -11   2   5  2321.83  2418.85    54.61 o
 -10   2   5   320.49   380.21    19.96 o
  -9   2   5  2379.79  2339.34    37.42 o
  -8   2   5   184.06   203.13    11.44 o
  -7   2   5   302.28   337.58    11.71 o
  -6   2   5  2596.89  2459.72    32.41 o
  -5   2   5  3387.83  3517.14    41.41 o
  -4   2   5  1483.77  1560.98    22.80 o
  -3   2   5  4214.82  4422.98    50.01 o
  -2   2   5  1603.35  1556.52    21.11 o
  -1   2   5 11144.00 11451.00   123.02 o
   0   2   5 14302.10 14623.20   159.29 o
   1   2   5    38.83    43.31     5.55 o
   2   2   5   360.21   355.38    13.87 o
   3   2   5  3247.03  3166.63    69.36 o
   4   2   5   922.05  1001.05    31.67 o
   5   2   5  4484.74  4591.47    83.91 o
   6   2   5  6289.02  6429.41   109.28 o
   7   2   5    13.09     5.95    14.07 <
   8   2   5  1509.39  1611.33    46.82 o
   9   2   5  4307.67  4426.50    95.27 o
 -11   3   5  2763.04  2801.64    60.63 o
 -10   3   5  2020.48  2108.33    44.59 o
  -9   3   5   310.52   304.43    15.16 o
  -8   3   5  2437.72  2410.66    34.58 o
  -7   3   5  1270.90  1243.36    21.92 o
  -6   3   5   333.95   329.40    11.91 o
  -5   3   5  7829.31  7495.35    84.31 o
  -4   3   5  1514.69  1463.34    21.52 o
  -3   3   5   416.39   562.71    12.32 o
  -2   3   5  2846.11  3106.40    36.81 o
  -1   3   5  9760.24  9357.38   105.42 o
   0   3   5  1615.35  1733.87    21.59 o
   1   3   5 11432.60 11541.10   137.77 o
   2   3   5   195.05   291.37    10.76 o
   3   3   5   726.33   818.49    20.57 o
   4   3   5  8112.52  8336.91   158.07 o
   5   3   5  3304.35  3385.19    59.55 o
   6   3   5  1210.10  1256.89    32.95 o
   7   3   5    86.83    89.66    14.75 o
   8   3   5  1379.28  1431.27    41.34 o
   9   3   5   119.52    79.91    18.95 o
 -11   4   5   980.44  1018.44    33.70 o
 -10   4   5   857.70   853.47    29.57 o
  -9   4   5  1255.96  1226.78    27.00 o
  -8   4   5   597.58   638.97    17.12 o
  -7   4   5   500.66   508.10    15.29 o
  -6   4   5 13922.40 13393.20   146.77 o
  -5   4   5    59.63    59.14     7.38 o
  -4   4   5  4622.22  4516.09    50.95 o
  -3   4   5    23.08    28.15     5.68 o
  -2   4   5   250.89   183.98     6.97 o
  -1   4   5   740.56   697.64    12.18 o
   0   4   5 40392.10 39906.50   420.00 o
   1   4   5     1.47     5.35     4.74 <
   2   4   5    60.63    64.82     7.24 o
   3   4   5  1983.59  1948.98    35.05 o
   4   4   5  3432.33  3318.81    56.64 o
   5   4   5   431.91   448.76    17.66 o
   6   4   5  5995.48  6065.23   101.84 o
   7   4   5   707.08   729.10    26.73 o
   8   4   5  1374.57  1336.87    39.25 o
   9   4   5  1681.64  1639.21    51.02 o
 -11   5   5  2066.99  2024.36    48.52 o
 -10   5   5   469.07   461.35    22.67 o
  -9   5   5   349.71   353.28    15.56 o
  -8   5   5   258.60   276.14    12.99 o
  -7   5   5  5192.82  5223.13    63.13 o
  -6   5   5   230.92   230.88    10.89 o
  -5   5   5 16005.60 15600.80   165.78 o
  -4   5   5   282.33   309.57     9.88 o
  -3   5   5   491.81   651.49    13.19 o
  -2   5   5    97.47    87.09     6.23 o
  -1   5   5 18094.10 17682.80   185.40 o
   0   5   5   351.48   369.66     9.20 o
   1   5   5 15116.10 14853.00   165.44 o
   2   5   5  3236.40  3505.43    54.27 o
   3   5   5   177.34   211.73    10.69 o
   4   5   5     7.17     3.72     9.88 <
   5   5   5  6501.43  6530.57    91.42 o
   6   5   5  2121.48  2077.34    44.05 o
   7   5   5   569.29   594.72    25.10 o
   8   5   5   622.45   632.41    30.45 o
   9   5   5    24.29    39.45    18.68 o
 -11   6   5    12.91    10.49    15.02 <
 -10   6   5   746.15   815.78    30.86 o
  -9   6   5   156.71   138.44    13.94 o
  -8   6   5   266.41   260.58    13.13 o
  -7   6   5  1419.80  1417.26    24.83 o
  -6   6   5 14390.10 14127.20   155.16 o
  -5   6   5    29.38    59.14     7.65 o
  -4   6   5  8521.46  8366.82    89.93 o
  -3   6   5     0.62     8.46     5.62 <
  -2   6   5   576.42   450.59    11.03 o
  -1   6   5   959.60  1032.51    16.92 o
   0   6   5 30297.70 29975.20   330.21 o
   1   6   5  2751.55  2648.37    32.95 o
   2   6   5  2253.86  2173.02    31.94 o
   3   6   5   206.85   232.63     9.54 o
   4   6   5   964.99   993.40    23.01 o
   5   6   5     9.09    17.59     9.41 <
   6   6   5  5531.06  5580.67    82.96 o
   7   6   5  2307.85  2449.64    50.61 o
   8   6   5   137.48   159.15    16.85 o
   9   6   5     7.33    -2.30    19.62 <
 -11   7   5  1625.64  1617.96    44.93 o
 -10   7   5  1066.27  1014.18    33.56 o
  -9   7   5   151.04   166.46    13.94 o
  -8   7   5   160.33   178.98    12.25 o
  -7   7   5  2580.18  2513.79    36.20 o
  -6   7   5  1325.87  1310.96    23.75 o
  -5   7   5 13124.60 12996.00   137.43 o
  -4   7   5  2026.07  2041.01    27.68 o
  -3   7   5  4684.39  4595.39    53.52 o
  -2   7   5  2995.03  3056.26    38.50 o
  -1   7   5 11788.10 11273.60   130.05 o
   0   7   5   132.00   163.41     7.85 o
   1   7   5 13857.30 13518.30   159.29 o
   2   7   5  2456.08  2572.72    36.07 o
   3   7   5  1303.33  1329.63    24.70 o
   4   7   5  2501.08  2528.13    41.14 o
   5   7   5  5598.01  5655.72    82.48 o
   6   7   5   876.36   904.49    23.55 o
   7   7   5  1261.85  1214.26    32.68 o
   8   7   5   260.84   274.11    21.04 o
 -10   8   5   951.15  1019.18    34.24 o
  -9   8   5  1461.54  1441.42    36.95 o
  -8   8   5   986.88   978.65    24.63 o
  -7   8   5  3222.97  3209.26    42.97 o
  -6   8   5  4569.36  4745.95    60.76 o
  -5   8   5  2934.64  3004.30    37.69 o
  -4   8   5  5343.81  5254.59    61.64 o
  -3   8   5   262.98   297.66    10.08 o
  -2   8   5 10638.20 10778.60   120.51 o
  -1   8   5  1471.65  1414.55    21.52 o
   0   8   5 11179.10 11086.80   131.81 o
   1   8   5  1889.00  1924.01    29.71 o
   2   8   5  4404.87  4362.22    55.42 o
   3   8   5  1863.18  1874.21    30.11 o
   4   8   5  1985.56  2038.23    34.51 o
   5   8   5   832.95   861.39    22.13 o
   6   8   5  3517.74  3386.07    52.91 o
   7   8   5  1766.21  1652.47    38.57 o
   8   8   5    50.00    59.48    13.87 o
 -10   9   5  2545.92  2461.08    56.57 o
  -9   9   5  1428.83  1494.47    37.76 o
  -8   9   5    15.04    41.89    11.64 o
  -7   9   5  2533.10  2513.11    38.37 o
  -6   9   5   750.74   781.20    19.28 o
  -5   9   5  3527.36  3427.48    42.16 o
  -4   9   5  4121.58  4233.79    50.75 o
  -3   9   5  7600.28  7493.59    84.31 o
  -2   9   5  1522.18  1516.46    22.80 o
  -1   9   5  3250.90  3072.77    42.29 o
   0   9   5    18.71    34.58     8.26 o
   1   9   5  4683.50  4703.93    60.29 o
   2   9   5  1136.42  1129.95    21.18 o
   3   9   5  4959.31  5025.00    68.68 o
   4   9   5  5580.99  5468.28    80.86 o
   5   9   5  3468.91  3518.76    52.64 o
   6   9   5    21.33    23.95    10.89 o
   7   9   5   211.68   251.38    15.97 o
   8   9   5     2.81     8.05    13.06 <
 -10  10   5   726.42   702.91    30.11 o
  -9  10   5  1102.63  1174.75    35.93 o
  -8  10   5  2931.17  3011.54    47.57 o
  -7  10   5    96.71   115.71    11.50 o
  -6  10   5   356.85   386.10    13.53 o
  -5  10   5  2445.60  2445.38    33.90 o
  -4  10   5  7013.52  7116.08    80.32 o
  -3  10   5   413.08   479.35    13.94 o
  -2  10   5 10705.00 10853.20   119.90 o
  -1  10   5  2500.66  2474.54    38.16 o
   0  10   5  2271.77  2316.61    32.68 o
   1  10   5  1411.93  1465.91    24.77 o
   2  10   5  3844.16  3877.93    51.29 o
   3  10   5   520.04   531.79    16.24 o
   4  10   5  2868.69  2849.75    43.37 o
   5  10   5  3674.80  3575.53    57.79 o
   6  10   5   274.31   299.69    17.39 o
   7  10   5    65.28    43.92    12.25 o
  -9  11   5  2325.34  2355.45    53.59 o
  -8  11   5   112.37   141.42    17.12 o
  -7  11   5   657.36   697.23    20.64 o
  -6  11   5   359.30   372.84    13.94 o
  -5  11   5   344.83   334.67    13.33 o
  -4  11   5  2655.50  2699.33    36.00 o
  -3  11   5  8426.70  8412.56    99.40 o
  -2  11   5  1009.82  1015.94    21.72 o
  -1  11   5    53.65    64.15     9.13 o
   0  11   5  1208.75  1195.79    22.33 o
   1  11   5  1436.77  1458.13    24.90 o
   2  11   5   867.95   887.71    20.37 o
   3  11   5  2407.05  2446.05    38.64 o
   4  11   5  3680.32  3662.01    56.57 o
   5  11   5    13.33    15.16    12.45 <
   6  11   5   631.93   577.26    22.40 o
   7  11   5    85.46    75.92    14.01 o
  -9  12   5   280.12   329.80    23.14 o
  -8  12   5  3384.83  3387.49    63.40 o
  -7  12   5   358.11   380.89    17.12 o
  -6  12   5   226.68   222.08    13.13 o
  -5  12   5   678.48   710.22    20.37 o
  -4  12   5  3566.99  3626.96    54.27 o
  -3  12   5   724.88   693.44    18.81 o
  -2  12   5 10115.30 10220.20   121.66 o
  -1  12   5  2158.08  2149.47    34.37 o
   0  12   5   141.51   142.77    10.42 o
   1  12   5    43.89    38.16     8.93 o
   2  12   5  2113.55  2107.32    36.27 o
   3  12   5   861.88   876.75    21.65 o
   4  12   5  1149.44  1127.52    27.13 o
   5  12   5  1354.07  1334.57    33.22 o
   6  12   5    28.34    19.08    14.55 <
   7  12   5   311.39   296.17    23.21 o
  -8  13   5  1179.91  1223.60    38.84 o
  -7  13   5   318.24   303.89    18.20 o
  -6  13   5  1753.02  1728.52    34.04 o
  -5  13   5    17.88    26.46    11.10 o
  -4  13   5     0.40     9.07     9.68 <
  -3  13   5  3093.25  3071.29    44.32 o
  -2  13   5   126.46   144.94    11.23 o
  -1  13   5   457.25   472.04    15.77 o
   0  13   5    57.73    57.92    10.08 o
   1  13   5    60.99    59.21    11.03 o
   2  13   5   712.49   720.71    19.35 o
   3  13   5  4155.07  4143.18    64.49 o
   4  13   5  1932.39  1947.69    40.94 o
   5  13   5   482.98   476.91    22.06 o
   6  13   5   859.96   868.76    37.01 o
  -8  14   5   456.14   465.00    25.04 o
  -7  14   5  1365.53  1321.99    35.19 o
  -6  14   5   136.59   153.40    13.26 o
  -5  14   5    50.67    46.96    12.11 o
  -4  14   5     8.67    10.56    11.16 <
  -3  14   5    31.92    42.76    10.83 o
  -2  14   5  1614.76  1501.03    28.89 o
  -1  14   5    12.01    25.44     9.68 o
   0  14   5   401.29   419.46    17.53 o
   1  14   5   773.21   745.34    20.84 o
   2  14   5  2287.50  2272.76    46.35 o
   3  14   5   424.92   465.88    20.50 o
   4  14   5     3.72    -0.68    11.10 <
   5  14   5   888.93   836.76    27.81 o
   6  14   5   923.84   870.93    33.90 o
  -7  15   5    28.70    54.61    15.16 o
  -6  15   5  1111.85  1092.94    30.11 o
  -5  15   5   485.89   489.63    19.96 o
  -4  15   5    35.89    35.66    10.89 o
  -3  15   5    79.48    76.67    11.64 o
  -2  15   5   712.58   713.33    20.44 o
  -1  15   5   101.04   114.42    12.11 o
   0  15   5   218.95   210.98    14.35 o
   1  15   5   211.68   208.68    15.02 o
   2  15   5  3069.81  2993.88    59.75 o
   3  15   5  1287.81  1270.76    39.11 o
   4  15   5   201.82   169.64    14.62 o
   5  15   5   974.59   989.82    31.87 o
  -6  16   5   713.33   729.57    24.22 o
  -5  16   5    10.33    19.22    12.45 <
  -4  16   5    66.71    64.82    11.30 o
  -3  16   5    21.97    36.00    12.11 o
  -2  16   5   411.96   418.65    19.28 o
  -1  16   5   308.35   286.02    17.12 o
   0  16   5   741.12   697.70    25.51 o
   1  16   5  2078.05  2005.62    45.07 o
   2  16   5     2.40    25.58    12.92 <
   3  16   5    89.37    66.11    13.53 o
   4  16   5    55.30    54.34    13.47 o
  -5  17   5   585.23   497.34    21.86 o
  -4  17   5   184.99   153.20    15.63 o
  -3  17   5   377.09   433.94    20.30 o
  -2  17   5   518.42   484.08    20.71 o
  -1  17   5   766.36   844.13    27.61 o
   0  17   5   149.05   161.25    16.38 o
   1  17   5   606.32   609.40    28.96 o
   2  17   5  2004.64  1966.84    56.84 o
   3  17   5   144.41   180.80    19.89 o
  -4  18   5   493.11   485.91    24.63 o
  -3  18   5     1.23    19.35    13.87 <
  -2  18   5  1708.65  1646.65    40.73 o
  -1  18   5   330.29   310.05    21.18 o
   0  18   5  1118.95  1127.18    39.38 o
   1  18   5  1165.09  1190.65    44.52 o
   2  18   5   978.51  1026.69    39.79 o
  -1  19   5   419.76   412.63    30.25 o
 -10   0   6   516.49   575.70    29.77 o
  -8   0   6  6650.52  6920.19   109.96 o
  -6   0   6  8039.86  8227.02   131.54 o
  -4   0   6  1533.88  1414.76    31.19 o
  -2   0   6 31420.90 30505.10   456.74 o
   0   0   6   758.44  1024.80    21.45 o
   2   0   6    29.69    21.45    12.59 <
   4   0   6  2622.64  2598.10   102.31 o
   6   0   6  1098.49  1136.45    46.01 o
   8   0   6    62.03    92.70    32.68 o
 -11   1   6   744.09   763.81    30.11 o
 -10   1   6    44.47    26.86    11.16 o
  -9   1   6  3983.72  3853.44    53.46 o
  -8   1   6   605.94   628.68    16.10 o
  -7   1   6 18600.30 18906.90   197.18 o
  -6   1   6  2910.23  3071.62    38.64 o
  -5   1   6   419.98   400.18    11.50 o
  -4   1   6   558.19   517.91    12.38 o
  -3   1   6 17068.70 16835.90   181.62 o
  -2   1   6  4354.08  4630.17    56.57 o
  -1   1   6 17970.80 17888.40   190.82 o
   0   1   6    33.15    42.36     5.55 o
   1   1   6   363.04   362.62    11.30 o
   2   1   6  2366.46  2465.88    48.31 o
   3   1   6  3801.54  3871.91    85.39 o
   4   1   6  1255.47  1222.72    38.03 o
   5   1   6   605.65   630.24    23.95 o
   6   1   6   299.40   318.03    20.50 o
   7   1   6  2383.14  2301.52    56.16 o
   8   1   6   505.28   485.57    29.23 o
   9   1   6    26.08    21.25    30.38 <
 -11   2   6   507.65   500.25    25.17 o
 -10   2   6   281.70   318.23    18.41 o
  -9   2   6   786.05   780.73    20.37 o
  -8   2   6  6492.48  6685.05    77.07 o
  -7   2   6   466.23   521.57    14.48 o
  -6   2   6  4824.51  4700.61    54.47 o
  -5   2   6   489.82   495.52    12.92 o
  -4   2   6   207.48   139.87     8.05 o
  -3   2   6 23100.00 23711.60   247.99 o
  -2   2   6 26385.50 25758.60   284.74 o
  -1   2   6   763.77   811.99    13.87 o
   0   2   6    12.99     7.44     4.80 <
   1   2   6  1650.73  1576.95    24.09 o
   2   2   6   102.24   125.05    10.83 o
   3   2   6  5430.58  5663.63   135.54 o
   4   2   6  4301.11  4304.50    88.24 o
   5   2   6   279.05   318.03    19.42 o
   6   2   6  1572.22  1552.53    38.84 o
   7   2   6   927.96   890.08    39.65 o
   8   2   6    51.08    68.34    19.49 o
 -11   3   6   786.80   787.22    29.71 o
 -10   3   6    42.10    39.99    12.18 o
  -9   3   6  1088.57  1108.37    25.71 o
  -8   3   6  1212.24  1244.98    24.63 o
  -7   3   6  6643.93  6701.02    76.60 o
  -6   3   6  3077.79  3082.99    39.99 o
  -5   3   6   863.97   809.42    16.92 o
  -4   3   6  2715.68  2526.78    32.41 o
  -3   3   6  9520.60  9189.23   101.23 o
  -2   3   6  2317.99  2217.82    29.37 o
  -1   3   6  8606.20  8571.37    95.41 o
   0   3   6   222.94   256.05     7.71 o
   1   3   6     9.43    20.16     5.89 o
   2   3   6 13359.10 13592.20   216.26 o
   3   3   6  2522.53  2669.89    61.85 o
   4   3   6   187.40   229.73    16.65 o
   5   3   6   383.62   365.60    17.39 o
   6   3   6    25.16    32.68    12.72 o
   7   3   6   456.85   453.63    23.75 o
   8   3   6  3225.23  3251.68    82.35 o
 -11   4   6  2060.03  2047.50    51.43 o
 -10   4   6    86.98    65.30    13.06 o
  -9   4   6  2174.59  2173.16    39.92 o
  -8   4   6  3856.02  3894.71    53.05 o
  -7   4   6   875.62   885.47    19.15 o
  -6   4   6  3276.14  3158.64    40.06 o
  -5   4   6    61.98    59.14     7.78 o
  -4   4   6  2467.00  2448.62    30.86 o
  -3   4   6  6065.47  5770.41    66.04 o
  -2   4   6   505.47   421.22    11.03 o
  -1   4   6   413.27   390.57    10.08 o
   0   4   6  2712.94  2790.74    35.59 o
   1   4   6  2791.32  2703.59    34.71 o
   2   4   6   667.24   746.90    18.13 o
   3   4   6 14515.10 14243.10   225.73 o
   4   4   6   187.85   218.76    16.65 o
   5   4   6   302.51   332.78    16.98 o
   6   4   6    17.26    32.21    13.53 o
   7   4   6  3691.52  3736.17    86.34 o
   8   4   6    18.61    67.94    17.12 o
 -11   5   6   391.95   388.13    24.09 o
 -10   5   6     4.84    18.07    13.13 <
  -9   5   6  1488.67  1431.74    30.31 o
  -8   5   6  1684.83  1665.73    30.92 o
  -7   5   6   223.55   219.17    11.77 o
  -6   5   6  1745.17  1732.31    27.20 o
  -5   5   6  2544.48  2606.15    34.31 o
  -4   5   6  3952.29  3850.05    45.67 o
  -3   5   6  1234.34  1191.46    18.47 o
  -2   5   6  4005.02  3735.76    45.20 o
  -1   5   6    72.59    65.16     6.36 o
   0   5   6   636.82   634.10    12.45 o
   1   5   6  4522.06  4691.88    57.52 o
   2   5   6 15079.00 14926.40   193.05 o
   3   5   6     7.17    28.28     8.46 o
   4   5   6  1298.67  1279.70    31.40 o
   5   5   6    91.19    94.06    16.44 o
   6   5   6   530.99   585.85    23.21 o
   7   5   6     4.15    10.15    14.28 <
   8   5   6  8470.64  8277.77   153.80 o
 -11   6   6  2010.62  1953.04    49.33 o
 -10   6   6  1855.56  1796.19    47.16 o
  -9   6   6   484.73   485.64    18.68 o
  -8   6   6   315.62   303.21    14.07 o
  -7   6   6   462.34   474.47    15.90 o
  -6   6   6   241.43   242.92    11.30 o
  -5   6   6    25.19    28.28     8.53 o
  -4   6   6  1815.44  1785.16    25.71 o
  -3   6   6  9804.23  9769.94   109.62 o
  -2   6   6   852.32   885.68    15.83 o
  -1   6   6    26.01    56.43     6.50 o
   0   6   6  1350.94  1407.99    22.26 o
   1   6   6  7408.63  7330.11    88.37 o
   2   6   6  1289.44  1323.21    26.39 o
   3   6   6 11841.10 12114.90   167.07 o
   4   6   6  1699.60  1639.00    33.97 o
   5   6   6   366.81   434.42    18.20 o
   6   6   6   202.07   221.81    16.17 o
   7   6   6  6283.88  6200.97   112.19 o
   8   6   6   272.06   366.61    26.93 o
 -10   7   6    32.78    32.48    14.07 o
  -9   7   6    15.39    14.07    13.74 <
  -8   7   6  1662.13  1569.78    28.56 o
  -7   7   6   305.92   337.92    13.67 o
  -6   7   6   700.26   691.95    17.19 o
  -5   7   6  3043.11  3127.72    39.31 o
  -4   7   6  4738.52  4691.14    55.28 o
  -3   7   6   188.36   215.18     9.27 o
  -2   7   6  4976.73  4785.67    58.26 o
  -1   7   6   581.14   614.68    14.62 o
   0   7   6  2186.14  2112.33    30.65 o
   1   7   6  1695.26  1698.68    25.04 o
   2   7   6 14215.20 14490.10   177.96 o
   3   7   6   192.26   216.73    11.16 o
   4   7   6  2059.97  1974.90    37.76 o
   5   7   6  1129.68  1012.21    26.46 o
   6   7   6  2577.49  2602.09    50.88 o
   7   7   6  1221.35  1168.93    34.37 o
   8   7   6  4758.74  4626.86    98.66 o
 -10   8   6   349.45   327.43    23.14 o
  -9   8   6   246.41   262.54    17.19 o
  -8   8   6  2128.99  2141.49    37.83 o
  -7   8   6    13.09    21.59     9.95 o
  -6   8   6    31.65    71.12    10.15 o
  -5   8   6   468.14   517.37    14.55 o
  -4   8   6   926.68   978.79    18.88 o
  -3   8   6  4761.25  4679.03    54.61 o
  -2   8   6  6236.61  6468.99    78.22 o
  -1   8   6  1134.03  1113.64    20.23 o
   0   8   6    15.60    25.58     7.51 o
   1   8   6  6817.92  6770.31    83.50 o
   2   8   6   716.76   744.32    16.65 o
   3   8   6  4736.24  4935.55    69.70 o
   4   8   6  1745.03  1829.08    36.07 o
   5   8   6  3862.27  3802.08    63.81 o
   6   8   6   446.48   498.09    21.11 o
   7   8   6  2197.63  2158.54    42.76 o
   8   8   6     2.59    22.67    43.17 <
 -10   9   6    82.79    84.79    15.97 o
  -9   9   6    43.62    31.26    14.41 o
  -8   9   6    12.93    29.43    11.71 o
  -7   9   6  5101.74  5131.31    66.79 o
  -6   9   6   943.76   912.07    19.83 o
  -5   9   6   431.96   442.67    13.80 o
  -4   9   6  1489.39  1489.46    24.56 o
  -3   9   6   808.82   774.98    17.39 o
  -2   9   6  2047.18  2017.53    32.01 o
  -1   9   6  1295.43  1306.90    21.86 o
   0   9   6  6245.84  6343.07    79.17 o
   1   9   6   650.86   686.67    16.38 o
   2   9   6  1945.62  1983.08    31.94 o
   3   9   6  1584.11  1538.65    27.07 o
   4   9   6  4286.73  4337.18    66.18 o
   5   9   6    17.40    24.63    11.03 o
   6   9   6  2638.36  2570.63    57.65 o
   7   9   6  1571.46  1544.14    37.62 o
 -10  10   6    36.97    32.28    16.24 <
  -9  10   6   539.54   504.72    25.10 o
  -8  10   6  2881.93  2862.67    48.45 o
  -7  10   6    22.63    48.11    11.23 o
  -6  10   6  3082.32  3102.48    41.41 o
  -5  10   6   867.78   882.63    20.77 o
  -4  10   6    10.53    17.39     8.59 o
  -3  10   6   664.21   699.73    17.19 o
  -2  10   6 11135.60 11300.20   132.76 o
  -1  10   6  2463.35  2436.78    36.27 o
   0  10   6   330.37   350.31    12.38 o
   1  10   6  2584.38  2570.29    36.34 o
   2  10   6    14.95    18.61     7.85 o
   3  10   6  3309.20  3183.07    48.11 o
   4  10   6  1727.77  1617.89    33.29 o
   5  10   6  6268.47  6228.58   111.58 o
   6  10   6   586.21   583.08    20.64 o
   7  10   6   723.88   634.43    28.83 o
  -9  11   6   565.73   570.09    27.00 o
  -8  11   6   164.01   172.68    15.50 o
  -7  11   6  4223.86  4401.39    63.47 o
  -6  11   6  2383.56  2326.22    34.44 o
  -5  11   6   204.55   260.17    13.06 o
  -4  11   6    88.94   136.68    11.10 o
  -3  11   6  3617.00  3601.65    47.10 o
  -2  11   6     0.01    23.95     8.26 o
  -1  11   6  2841.43  2868.22    42.43 o
   0  11   6  2351.67  2321.82    33.63 o
   1  11   6   716.09   708.46    18.00 o
   2  11   6   255.83   278.58    13.47 o
   3  11   6  2606.62  2455.86    41.55 o
   4  11   6  2616.03  2555.40    60.09 o
   5  11   6    40.22    53.39    13.67 o
   6  11   6  2613.07  2556.08    52.51 o
  -9  12   6   755.72   758.06    31.80 o
  -8  12   6  2835.24  2772.27    56.50 o
  -7  12   6   229.08   230.00    14.82 o
  -6  12   6  1814.05  1821.97    31.53 o
  -5  12   6   129.14   169.91    12.18 o
  -4  12   6  1370.23  1359.95    26.46 o
  -3  12   6    27.97    33.56    10.15 o
  -2  12   6  2285.89  2302.47    36.47 o
  -1  12   6  3237.14  3211.42    44.73 o
   0  12   6   776.46   783.30    19.69 o
   1  12   6  1417.67  1396.89    27.27 o
   2  12   6  1149.86  1186.32    26.59 o
   3  12   6    33.67    37.96    11.37 o
   4  12   6   567.55   584.77    22.13 o
   5  12   6  4445.37  4317.49    92.23 o
   6  12   6   330.55   378.59    31.74 o
  -8  13   6   428.67   421.83    22.94 o
  -7  13   6  2388.65  2374.33    46.55 o
  -6  13   6  2101.69  1980.11    36.95 o
  -5  13   6  1860.82  1925.23    34.17 o
  -4  13   6   184.55   163.62    14.07 o
  -3  13   6  2861.50  2941.84    42.83 o
  -2  13   6     1.44     8.73     9.95 <
  -1  13   6  2855.94  2852.12    45.20 o
   0  13   6  4026.95  3944.72    57.11 o
   1  13   6  1425.66  1368.14    28.22 o
   2  13   6  1043.66  1032.92    27.40 o
   3  13   6   219.21   229.32    18.07 o
   4  13   6   177.83   180.80    17.25 o
   5  13   6    37.61    37.22    14.82 o
   6  13   6  1077.83   895.96    55.49 o
  -8  14   6  2219.30  2257.60    54.20 o
  -7  14   6    61.23    69.56    15.70 o
  -6  14   6  1700.17  1722.64    34.17 o
  -5  14   6   900.74   891.90    24.29 o
  -4  14   6  2730.68  2739.11    45.74 o
  -3  14   6  1446.97  1365.63    30.99 o
  -2  14   6   396.47   443.62    16.58 o
  -1  14   6  1830.70  1831.44    33.90 o
   0  14   6  1399.28  1342.83    26.39 o
   1  14   6   139.77   131.07    12.72 o
   2  14   6  1676.20  1636.70    39.86 o
   3  14   6   157.38   175.05    17.93 o
   4  14   6    35.84    -2.57    14.75 <
   5  14   6  1391.94  1296.88    41.55 o
  -7  15   6  1952.31  1859.66    43.51 o
  -6  15   6  1156.33  1145.72    32.41 o
  -5  15   6  2610.45  2675.78    49.60 o
  -4  15   6   606.29   656.09    21.31 o
  -3  15   6  2515.46  2406.13    42.36 o
  -2  15   6    13.13    33.16    11.57 o
  -1  15   6  1847.85  1839.36    36.27 o
   0  15   6  1058.59  1033.53    28.22 o
   1  15   6  1761.61  1748.22    42.43 o
   2  15   6   761.47   759.75    29.03 o
   3  15   6    24.07    19.56    12.79 <
   4  15   6    10.91    46.76    15.16 o
  -6  16   6  1934.90  1997.02    50.41 o
  -5  16   6    20.57    48.11    13.67 o
  -4  16   6  3272.19  3241.80    57.18 o
  -3  16   6  1106.00  1064.32    31.46 o
  -2  16   6    29.68    48.58    13.19 o
  -1  16   6   207.59   224.24    18.54 o
   0  16   6  1169.97  1201.14    39.65 o
   1  16   6   144.10   131.41    17.39 o
   2  16   6  1270.99  1274.89    44.86 o
   3  16   6   786.72   795.89    33.16 o
  -5  17   6  4956.40  4670.23    91.48 o
  -4  17   6   188.39   197.45    20.77 o
  -3  17   6  1478.82  1412.59    34.92 o
  -2  17   6    18.37    21.04    15.22 <
  -1  17   6    49.11    52.03    16.58 o
   0  17   6   531.39   519.95    28.01 o
   1  17   6  2339.63  2359.24    63.20 o
   2  17   6   327.60   372.10    33.36 o
  -3  18   6   134.37   111.99    20.64 o
  -2  18   6   205.55   173.29    21.45 o
  -1  18   6   601.75   559.12    32.89 o
   0  18   6   953.18   929.39    42.49 o
   1  18   6  1167.13   658.32   134.65 o
 -11   0   7  3264.79  3356.57    98.79 o
  -9   0   7   405.67   431.17    22.47 o
  -7   0   7   436.35   433.87    19.69 o
  -5   0   7 13921.60 13525.90   209.22 o
  -3   0   7  4443.41  4117.20    67.06 o
  -1   0   7   548.70   410.05    15.09 o
   1   0   7 26406.50 25868.80   441.59 o
   3   0   7  1148.94  1211.42    55.08 o
   5   0   7   729.42   805.36    39.31 o
   7   0   7  4656.26  4488.34   146.23 o
 -11   1   7     1.66     9.74    14.35 <
 -10   1   7  2573.27  2644.11    52.10 o
  -9   1   7   607.90   610.96    18.95 o
  -8   1   7    91.26    97.03    10.29 o
  -7   1   7   308.46   346.92    13.06 o
  -6   1   7  6984.12  6914.98    79.17 o
  -5   1   7   297.40   304.16    11.23 o
  -4   1   7 16082.40 15826.20   168.35 o
  -3   1   7   861.68   870.72    17.05 o
  -2   1   7  1082.22  1041.78    19.62 o
  -1   1   7    95.83   115.10     6.97 o
   0   1   7 10986.50 10575.00   116.72 o
   1   1   7    25.55    57.04     8.05 o
   2   1   7 10526.90 10701.60   180.80 o
   3   1   7   210.34   244.00    19.76 o
   4   1   7  2860.69  2815.31    68.88 o
   5   1   7   216.72   215.65    18.13 o
   6   1   7  8275.63  8271.07   150.83 o
   7   1   7    19.05    27.20    18.41 <
   8   1   7   102.80   140.81    23.62 o
 -11   2   7  1409.59  1434.79    47.91 o
 -10   2   7   464.69   439.49    22.67 o
  -9   2   7   392.68   449.77    17.25 o
  -8   2   7  1090.49  1127.72    23.14 o
  -7   2   7   861.23   892.51    20.44 o
  -6   2   7    33.96    40.60     8.66 o
  -5   2   7 11164.40 10712.30   116.93 o
  -4   2   7  1854.42  1757.76    25.58 o
  -3   2   7  3774.70  3642.72    43.71 o
  -2   2   7   711.38   806.37    15.83 o
  -1   2   7  7637.65  7334.51    80.12 o
   0   2   7   248.39   243.39     7.85 o
   1   2   7 10132.80  9975.64   130.53 o
   2   2   7  1480.10  1472.68    33.29 o
   3   2   7   689.89   666.91    26.19 o
   4   2   7   768.47   798.80    31.46 o
   5   2   7  2043.65  2035.80    49.53 o
   6   2   7  1098.01  1126.84    39.52 o
   7   2   7  4713.55  4871.81   115.37 o
   8   2   7    21.58    57.72    21.52 o
 -11   3   7    91.45   109.14    16.58 o
 -10   3   7   328.77   321.82    19.56 o
  -9   3   7  4059.98  4111.78    61.58 o
  -8   3   7    18.10    25.04     9.95 o
  -7   3   7    73.89    93.11    10.76 o
  -6   3   7  4756.10  4759.55    58.46 o
  -5   3   7   778.44   799.81    17.93 o
  -4   3   7  5300.39  5147.21    59.28 o
  -3   3   7  1398.41  1311.70    21.65 o
  -2   3   7  2376.73  2309.77    31.94 o
  -1   3   7  2005.32  2041.61    25.85 o
   0   3   7 10073.50 10143.80   108.87 o
   1   3   7    73.47    89.66     7.98 o
   2   3   7  5446.81  5229.49    79.78 o
   3   3   7  1482.18  1451.70    39.04 o
   4   3   7  1191.21  1201.95    31.19 o
   5   3   7  5430.20  5308.12    93.99 o
   6   3   7  2244.34  2268.36    54.74 o
   7   3   7    14.32    35.25    18.81 <
   8   3   7   653.55   656.77    39.86 o
 -11   4   7   236.28   201.17    20.77 o
 -10   4   7  3770.04  3777.58    67.94 o
  -9   4   7   669.87   640.32    21.38 o
  -8   4   7  5276.28  5326.05    64.15 o
  -7   4   7  1700.99  1625.74    26.80 o
  -6   4   7   408.73   378.93    13.74 o
  -5   4   7  1850.37  1719.46    26.32 o
  -4   4   7  4150.44  3945.06    47.50 o
  -3   4   7  3487.68  3438.37    42.29 o
  -2   4   7   293.08   344.22    10.76 o
  -1   4   7  7495.87  7245.05    84.18 o
   0   4   7   777.57   743.58    14.21 o
   1   4   7  6098.17  6420.75    76.53 o
   2   4   7  1337.47  1331.19    29.16 o
   3   4   7   805.33   837.36    23.55 o
   4   4   7  3281.29  3117.64    64.89 o
   5   4   7   596.24   627.13    26.32 o
   6   4   7  3693.31  3666.34    80.39 o
   7   4   7   923.30   886.02    38.30 o
   8   4   7    50.00    49.67    22.13 o
 -11   5   7   670.09   671.11    30.11 o
 -10   5   7   129.96   114.56    15.63 o
  -9   5   7  4963.13  4880.20    73.69 o
  -8   5   7  1059.56  1045.84    23.68 o
  -7   5   7   253.65   294.28    13.19 o
  -6   5   7   194.71   206.72    11.23 o
  -5   5   7  1648.16  1611.67    24.77 o
  -4   5   7   261.69   248.67    10.69 o
  -3   5   7  5564.85  5688.13    63.61 o
  -2   5   7  1979.14  1918.06    26.59 o
  -1   5   7  2455.25  2560.27    32.75 o
   0   5   7  1214.21  1148.56    18.88 o
   1   5   7   280.58   323.71    10.42 o
   2   5   7  2407.42  2434.62    38.16 o
   3   5   7    84.54    92.09    12.38 o
   4   5   7   306.48   343.13    18.81 o
   5   5   7  7472.18  7352.98   129.65 o
   6   5   7   366.29   341.17    22.47 o
   7   5   7   144.10   145.48    18.07 o
   8   5   7   352.70   385.83    41.21 o
 -10   6   7  4659.79  4623.07    80.52 o
  -9   6   7   786.61   714.89    22.33 o
  -8   6   7  3246.52  3273.07    47.84 o
  -7   6   7  3355.79  3286.12    42.56 o
  -6   6   7   140.14   154.89    10.89 o
  -5   6   7   313.44   325.88    12.11 o
  -4   6   7  6478.04  6583.55    74.43 o
  -3   6   7   543.83   504.92    13.40 o
  -2   6   7   404.62   421.49    11.91 o
  -1   6   7   903.19   908.28    18.34 o
   0   6   7   982.55   992.39    18.00 o
   1   6   7    50.23    77.95     7.98 o
   2   6   7   820.02   797.10    19.89 o
   3   6   7  1031.55  1057.35    25.24 o
   4   6   7  1709.56  1654.97    34.51 o
   5   6   7   262.24   310.99    18.07 o
   6   6   7  2466.75  2461.41    53.52 o
   7   6   7    90.09   106.78    17.05 o
 -10   7   7    62.91    87.83    15.97 o
  -9   7   7  2765.00  2755.08    51.16 o
  -8   7   7   423.45   446.66    17.66 o
  -7   7   7   938.45   947.73    22.13 o
  -6   7   7   287.48   281.15    12.86 o
  -5   7   7  1679.68  1656.46    25.85 o
  -4   7   7   543.72   548.77    14.95 o
  -3   7   7   483.83   475.89    12.72 o
  -2   7   7  3856.62  3861.49    49.73 o
  -1   7   7   889.16   906.25    18.34 o
   0   7   7  1320.09  1369.83    22.53 o
   1   7   7    12.25    26.25     7.65 o
   2   7   7    15.71    40.67     9.95 o
   3   7   7    95.94   108.20    10.76 o
   4   7   7  1524.68  1522.96    34.78 o
   5   7   7  4085.49  3932.20    74.64 o
   6   7   7   749.70   727.00    27.74 o
   7   7   7   547.62   606.08    31.46 o
 -10   8   7  3045.18  3034.34    68.55 o
  -9   8   7    24.10    39.52    14.82 o
  -8   8   7   640.90   677.00    21.04 o
  -7   8   7    16.12    16.85    10.62 <
  -6   8   7  1244.77  1305.34    24.83 o
  -5   8   7  1649.98  1661.47    26.46 o
  -4   8   7  2412.44  2352.00    33.70 o
  -3   8   7    22.59    46.62     7.78 o
  -2   8   7  1391.85  1378.83    23.28 o
  -1   8   7   345.82   385.36    11.91 o
   0   8   7   524.36   530.97    13.80 o
   1   8   7  6553.13  6589.44    81.94 o
   2   8   7     8.03    10.89     8.26 <
   3   8   7  1583.59  1573.30    31.33 o
   4   8   7   133.59   158.00    13.87 o
   5   8   7   265.33   275.81    18.34 o
   6   8   7  1486.08  1376.73    33.77 o
   7   8   7  1619.54  1559.36    44.32 o
 -10   9   7   461.47   408.23    29.10 o
  -9   9   7   961.98   901.99    30.52 o
  -8   9   7   605.78   590.39    20.50 o
  -7   9   7   881.48   896.23    22.60 o
  -6   9   7  1123.04  1146.53    24.77 o
  -5   9   7   927.89   931.02    21.31 o
  -4   9   7  2598.15  2540.04    35.25 o
  -3   9   7    37.81    42.16     8.46 o
  -2   9   7  2728.82  2775.92    39.18 o
  -1   9   7   174.62   184.73     9.74 o
   0   9   7  2453.70  2394.90    35.12 o
   1   9   7   221.70   267.01    11.16 o
   2   9   7  1625.40  1590.55    28.89 o
   3   9   7   820.77   818.15    21.52 o
   4   9   7   419.00   413.44    21.25 o
   5   9   7   996.77  1033.93    32.75 o
   6   9   7  2140.77  2003.99    47.84 o
   7   9   7  1211.63  1166.09    36.47 o
  -9  10   7   118.49   101.36    16.04 o
  -8  10   7   549.65   511.35    21.52 o
  -7  10   7    47.20    50.82    11.98 o
  -6  10   7  2481.89  2556.96    36.95 o
  -5  10   7  3063.60  3062.76    40.13 o
  -4  10   7    76.31    88.78    10.56 o
  -3  10   7   185.03   191.02    11.84 o
  -2  10   7   505.55   494.64    14.41 o
  -1  10   7  1181.62  1219.88    23.28 o
   0  10   7  1095.69  1087.26    23.41 o
   1  10   7  6080.04  6085.06    79.58 o
   2  10   7  3094.65  2968.10    45.74 o
   3  10   7     9.84    12.25    11.98 <
   4  10   7   233.10   238.93    15.63 o
   5  10   7   477.75   523.73    22.67 o
   6  10   7   421.16   451.47    27.88 o
  -9  11   7   367.76   354.50    22.74 o
  -8  11   7    77.75    65.03    14.41 o
  -7  11   7  1420.60  1445.82    30.45 o
  -6  11   7  1896.67  1991.41    31.67 o
  -5  11   7  1080.44  1141.05    23.14 o
  -4  11   7  1906.87  1956.96    30.99 o
  -3  11   7   540.77   563.72    17.05 o
  -2  11   7   881.58   885.54    19.69 o
  -1  11   7   655.55   692.76    19.35 o
   0  11   7  3013.79  3001.59    43.04 o
   1  11   7    99.02   132.42    10.62 o
   2  11   7  1866.65  1794.77    34.17 o
   3  11   7  1476.08  1522.35    38.57 o
   4  11   7   258.31   239.00    19.42 o
   5  11   7   174.99   178.64    17.73 o
   6  11   7  1904.05  1807.29    52.44 o
  -8  12   7    46.79    51.49    15.29 o
  -7  12   7   346.92   335.22    17.12 o
  -6  12   7  2339.45  2272.56    36.40 o
  -5  12   7  3383.26  3436.41    47.84 o
  -4  12   7    72.96    89.66    11.16 o
  -3  12   7  1960.82  2005.75    32.95 o
  -2  12   7   482.91   515.55    17.12 o
  -1  12   7  3395.03  3436.07    50.55 o
   0  12   7   609.97   580.57    18.00 o
   1  12   7  2105.69  2082.69    37.69 o
   2  12   7  5399.26  5158.44    91.08 o
   3  12   7  1882.99  1853.57    48.04 o
   4  12   7    20.88    16.71    14.41 <
   5  12   7   657.83   677.07    32.01 o
  -8  13   7   595.05   595.59    26.32 o
  -7  13   7  1054.56  1099.16    35.19 o
  -6  13   7  1406.94  1408.53    29.37 o
  -5  13   7    33.19    40.80    11.44 o
  -4  13   7  2035.74  2085.87    40.46 o
  -3  13   7   539.27   536.93    17.93 o
  -2  13   7  5139.97  5087.46    69.90 o
  -1  13   7  1193.69  1196.40    28.42 o
   0  13   7  2645.27  2619.68    44.46 o
   1  13   7   346.33   333.12    17.25 o
   2  13   7  4817.03  4726.39    82.01 o
   3  13   7   774.61   833.51    32.75 o
   4  13   7  1592.38  1598.74    45.34 o
   5  13   7   484.33   428.19    25.37 o
  -7  14   7  1799.92  1782.79    48.25 o
  -6  14   7  1198.57  1134.01    29.77 o
  -5  14   7   725.84   745.20    24.22 o
  -4  14   7   867.43   830.87    23.48 o
  -3  14   7  2074.99  2168.76    40.26 o
  -2  14   7   164.35   175.19    14.62 o
  -1  14   7  4060.64  4007.65    72.33 o
   0  14   7   134.60   117.47    12.92 o
   1  14   7  2396.35  2291.50    53.19 o
   2  14   7   368.99   399.03    20.37 o
   3  14   7  2677.20  2647.83    61.44 o
   4  14   7    49.07    28.76    16.92 <
  -6  15   7   724.12   743.45    29.23 o
  -5  15   7   241.55   227.43    17.19 o
  -4  15   7   671.13   674.36    25.58 o
  -3  15   7  1191.09  1122.17    32.61 o
  -2  15   7  7814.65  7414.96   120.58 o
  -1  15   7   191.83   175.19    17.12 o
   0  15   7  1604.06  1625.40    44.19 o
   1  15   7    17.97    20.37    13.26 <
   2  15   7  1587.11  1560.44    45.74 o
   3  15   7    67.86    49.13    17.25 o
  -5  16   7   160.18   209.43    19.89 o
  -4  16   7    56.15    63.94    15.83 o
  -3  16   7  2155.72  2215.31    50.48 o
  -2  16   7    40.98    74.84    15.36 o
  -1  16   7  2713.38  2747.17    60.83 o
   0  16   7   199.87   183.58    23.48 o
   1  16   7   329.95   370.40    26.39 o
   2  16   7     4.72     9.61    16.78 <
  -4  17   7   526.74   539.03    28.01 o
  -3  17   7   348.42   339.34    23.28 o
  -2  17   7  4104.81  4000.07    80.79 o
  -1  17   7   142.69   130.66    18.41 o
   0  17   7   239.24   234.33    26.25 o
   1  17   7     1.86     5.95    16.85 <
 -10   0   8  1794.69  1755.39    57.18 o
  -8   0   8   183.26   183.65    17.25 o
  -6   0   8  1115.45  1135.84    30.92 o
  -4   0   8   429.99   415.81    17.80 o
  -2   0   8  5789.44  5476.20    89.72 o
   0   0   8    80.85   105.15    10.08 o
   2   0   8  5683.21  5515.17   124.64 o
   4   0   8 14969.30 14748.20   415.13 o
   6   0   8    17.27    19.62    25.44 <
 -11   1   8  2821.02  2767.60    60.36 o
 -10   1   8     1.49    27.20    13.06 o
  -9   1   8    84.42    71.39    13.06 o
  -8   1   8    62.16    67.80    11.23 o
  -7   1   8   347.75   346.58    13.40 o
  -6   1   8   618.49   661.91    16.85 o
  -5   1   8   830.70   802.72    18.07 o
  -4   1   8    23.86    36.40     8.39 o
  -3   1   8  2301.42  2251.65    32.61 o
  -2   1   8   961.72   924.04    17.66 o
  -1   1   8  2112.70  2000.88    27.61 o
   0   1   8   870.42   878.37    15.50 o
   1   1   8    12.49     3.92     8.59 <
   2   1   8    92.73   109.96    13.60 o
   3   1   8 20366.20 20474.50   399.84 o
   4   1   8   757.25   823.90    36.67 o
   5   1   8  1412.36  1398.11    50.95 o
   6   1   8     0.51     8.66    17.05 <
   7   1   8   832.51   856.92    44.66 o
 -11   2   8   314.53   344.62    24.97 o
 -10   2   8  1273.91  1336.40    36.40 o
  -9   2   8    10.64     9.34    12.11 <
  -8   2   8   521.22   556.01    18.20 o
  -7   2   8  1890.01  1973.20    31.80 o
  -6   2   8   332.78   350.24    13.74 o
  -5   2   8   795.46   800.55    17.86 o
  -4   2   8    74.71    73.08     8.46 o
  -3   2   8    44.23    46.69     8.05 o
  -2   2   8  9781.17  9699.63   107.32 o
  -1   2   8  6802.38  6861.25    77.75 o
   0   2   8   402.42   451.80    11.64 o
   1   2   8    69.64    77.41     9.13 o
   2   2   8  5085.96  4961.40    86.14 o
   3   2   8    36.04    59.55    15.09 o
   4   2   8  4015.89  4034.64    97.03 o
   5   2   8  1951.17  1874.14    50.82 o
   6   2   8   141.66   146.36    23.34 o
   7   2   8  1331.84  1322.94    52.85 o
 -11   3   8   749.63   784.32    32.14 o
 -10   3   8    85.58   114.36    15.22 o
  -9   3   8   371.90   369.12    16.31 o
  -8   3   8   766.36   756.17    20.77 o
  -7   3   8   301.23   317.83    13.67 o
  -6   3   8  5336.67  5253.10    63.34 o
  -5   3   8   783.18   804.28    18.47 o
  -4   3   8   314.02   321.62    11.91 o
  -3   3   8  1961.95  1953.18    29.77 o
  -2   3   8  4920.20  4677.06    56.64 o
  -1   3   8  1383.53  1332.27    20.57 o
   0   3   8  4250.04  4190.82    48.52 o
   1   3   8   116.56   112.80     8.53 o
   2   3   8   424.77   478.13    17.39 o
   3   3   8  4640.44  4683.97    96.15 o
   4   3   8  1882.82  1803.97    43.92 o
   5   3   8   491.65   508.51    26.46 o
   6   3   8    16.20   -17.73    18.13 <
   7   3   8  1608.32  1553.47    55.49 o
 -11   4   8   679.69   648.92    28.56 o
 -10   4   8    71.78    73.69    14.48 o
  -9   4   8   548.17   555.33    19.08 o
  -8   4   8   133.18   137.36    12.65 o
  -7   4   8  7330.50  7291.20    83.23 o
  -6   4   8    29.86    54.74    10.42 o
  -5   4   8  2434.98  2263.83    33.16 o
  -4   4   8   140.68   160.30     9.81 o
  -3   4   8   144.73   161.92     9.74 o
  -2   4   8  3555.87  3561.52    44.19 o
  -1   4   8 13804.80 13599.10   144.67 o
   0   4   8   645.42   651.55    13.60 o
   1   4   8   178.92   174.65    10.15 o
   2   4   8  1492.26  1489.39    30.38 o
   3   4   8   438.12   481.92    24.43 o
   4   4   8  1962.05  1992.29    46.22 o
   5   4   8  2968.87  2850.29    61.85 o
   6   4   8  1592.84  1678.72    49.40 o
   7   4   8  1628.72  1561.93    57.92 o
 -10   5   8  1179.57  1256.56    38.43 o
  -9   5   8   368.44   382.85    19.42 o
  -8   5   8  4005.36  4056.57    54.47 o
  -7   5   8    52.57    55.35    10.49 o
  -6   5   8  8663.91  8332.58    95.95 o
  -5   5   8    84.52    92.77     9.61 o
  -4   5   8   394.76   440.30    13.26 o
  -3   5   8   211.48   240.21    10.83 o
  -2   5   8  9869.57  9677.57   107.93 o
  -1   5   8   108.19   116.39     7.98 o
   0   5   8  8531.98  8522.24    92.84 o
   1   5   8  2553.50  2503.77    34.64 o
   2   5   8  1019.31   963.16    22.80 o
   3   5   8    32.17    41.61    12.72 o
   4   5   8  1725.05  1746.66    46.49 o
   5   5   8   785.13   764.49    30.18 o
   6   5   8   282.04   337.86    22.40 o
   7   5   8   874.75   914.64    44.39 o
 -10   6   8   109.91    90.60    16.31 o
  -9   6   8   242.09   251.31    16.38 o
  -8   6   8  1111.04  1127.04    26.59 o
  -7   6   8  6731.45  6695.81    81.54 o
  -6   6   8   120.13   153.80    11.64 o
  -5   6   8  5457.62  5369.49    63.34 o
  -4   6   8   832.61   838.58    18.07 o
  -3   6   8   610.48   627.87    15.63 o
  -2   6   8    31.90    42.70     7.51 o
  -1   6   8 12826.80 12279.70   131.61 o
   0   6   8  2414.00  2468.72    31.67 o
   1   6   8   296.83   305.85    12.32 o
   2   6   8     0.49     0.81     8.66 <
   3   6   8  1225.11  1229.62    29.10 o
   4   6   8   319.62   311.13    19.08 o
   5   6   8  2555.95  2439.62    58.40 o
   6   6   8  2006.44  1970.23    47.37 o
   7   6   8   448.21   430.42    25.04 o
 -10   7   8   682.51   744.19    30.58 o
  -9   7   8     6.25    31.53    14.55 o
  -8   7   8  2143.57  2103.60    38.57 o
  -7   7   8  1101.96  1028.59    23.89 o
  -6   7   8  9807.01  9629.80   108.13 o
  -5   7   8   688.78   716.92    17.80 o
  -4   7   8  1743.22  1792.13    27.47 o
  -3   7   8   481.85   476.10    13.74 o
  -2   7   8  7041.35  6919.65    76.33 o
  -1   7   8     0.04    15.90     7.58 o
   0   7   8  5473.65  5434.79    65.64 o
   1   7   8  1543.35  1471.33    25.78 o
   2   7   8    51.95    37.42    13.60 o
   3   7   8  1130.34  1140.91    29.23 o
   4   7   8  1026.68  1003.42    34.17 o
   5   7   8   422.53   467.44    27.07 o
   6   7   8   162.13   170.79    18.27 o
 -10   8   8   760.06   747.44    32.28 o
  -9   8   8   822.31   839.33    27.68 o
  -8   8   8  1786.70  1688.06    35.39 o
  -7   8   8  2888.64  3020.81    44.73 o
  -6   8   8   716.92   708.39    19.01 o
  -5   8   8  4384.52  4484.62    54.13 o
  -4   8   8   215.35   211.39    11.44 o
  -3   8   8  5016.70  5025.34    59.55 o
  -2   8   8  1889.96  1886.79    28.35 o
  -1   8   8  5090.18  5008.97    61.85 o
   0   8   8   457.55   492.95    13.67 o
   1   8   8  2161.35  2092.91    32.21 o
   2   8   8   314.53   326.83    15.70 o
   3   8   8  1138.45  1137.06    27.47 o
   4   8   8   719.79   717.33    28.69 o
   5   8   8  1250.50  1172.58    36.47 o
   6   8   8   638.55   581.32    30.86 o
  -9   9   8    39.99    59.41    17.53 o
  -8   9   8  3448.45  3324.22    55.01 o
  -7   9   8   433.51   415.27    17.46 o
  -6   9   8  2714.49  2700.14    38.84 o
  -5   9   8  1779.04  1797.48    29.77 o
  -4   9   8  4721.65  4729.44    58.53 o
  -3   9   8   796.29   776.26    18.41 o
  -2   9   8  1571.71  1559.70    25.58 o
  -1   9   8    25.22    29.57     8.32 o
   0   9   8  3131.76  3137.87    44.52 o
   1   9   8   411.88   453.63    15.97 o
   2   9   8  1401.89  1402.71    28.56 o
   3   9   8  3724.20  3740.16    69.15 o
   4   9   8   371.68   439.35    20.57 o
   5   9   8    12.74    38.57    15.90 o
   6   9   8    36.22    36.88    16.51 o
  -9  10   8  1199.36  1216.36    37.69 o
  -8  10   8   649.99   608.59    23.28 o
  -7  10   8   626.76   677.94    22.13 o
  -6  10   8   893.29   919.92    22.06 o
  -5  10   8  4066.65  4098.18    50.95 o
  -4  10   8    26.01    45.74     9.47 o
  -3  10   8  4174.61  4283.45    55.89 o
  -2  10   8  4426.97  4349.83    58.53 o
  -1  10   8    97.36   106.24    10.69 o
   0  10   8   304.79   299.89    14.55 o
   1  10   8  2084.33  2141.83    41.07 o
   2  10   8  1051.66  1009.24    27.47 o
   3  10   8  1849.62  1797.95    48.04 o
   4  10   8  4013.54  3788.14    79.64 o
   5  10   8     7.42    47.50    16.17 o
  -9  11   8   112.91   116.52    18.47 o
  -8  11   8  1303.02  1300.27    35.46 o
  -7  11   8     1.43    -1.49    12.11 <
  -6  11   8   291.47   304.16    14.95 o
  -5  11   8   722.21   700.41    19.96 o
  -4  11   8  5767.94  5814.80    73.21 o
  -3  11   8   786.79   852.25    22.40 o
  -2  11   8   348.20   363.64    14.68 o
  -1  11   8   957.38   925.60    22.13 o
   0  11   8   186.53   216.40    14.01 o
   1  11   8     3.53    13.13    10.15 <
   2  11   8  1340.21  1376.05    35.86 o
   3  11   8  3453.32  3533.65    78.83 o
   4  11   8    32.48    39.31    15.02 o
   5  11   8   267.79   266.54    26.32 o
  -8  12   8   167.68   174.58    19.22 o
  -7  12   8     7.35    44.73    13.80 o
  -6  12   8    17.74    18.47    11.98 <
  -5  12   8   842.02   894.81    24.02 o
  -4  12   8     6.50    23.89    10.89 o
  -3  12   8  3237.48  3193.22    47.84 o
  -2  12   8  2562.04  2475.35    41.34 o
  -1  12   8    75.76    88.44    11.77 o
   0  12   8   299.52   292.25    15.29 o
   1  12   8   402.75   452.82    21.99 o
   2  12   8  1114.26  1136.58    34.44 o
   3  12   8   346.54   429.54    25.71 o
   4  12   8  1703.25  1799.44    62.46 o
  -7  13   8   198.37   165.98    17.59 o
  -6  13   8    64.13    76.67    13.74 o
  -5  13   8   199.13   213.82    16.31 o
  -4  13   8  2213.48  2198.26    43.10 o
  -3  13   8   830.46   820.45    26.05 o
  -2  13   8     4.49    30.11    14.14 o
  -1  13   8   715.41   734.92    24.43 o
   0  13   8    23.23    43.71    12.18 o
   1  13   8   515.09   567.04    26.12 o
   2  13   8  1836.78  1778.80    44.46 o
   3  13   8  1862.88  1967.99    57.38 o
   4  13   8   290.43   266.47    26.52 o
  -7  14   8   329.87   331.97    26.19 o
  -6  14   8   284.45   298.81    21.65 o
  -5  14   8    27.76    16.10    14.28 <
  -4  14   8   386.47   367.02    19.89 o
  -3  14   8  1189.13  1087.59    32.41 o
  -2  14   8    78.37    76.67    14.14 o
  -1  14   8   636.74   599.66    26.12 o
   0  14   8   901.73   948.74    33.77 o
   1  14   8   819.60   814.16    34.92 o
   2  14   8  1107.30  1175.97    39.92 o
   3  14   8    33.71    40.94    16.78 o
  -6  15   8   133.33   156.04    18.34 o
  -5  15   8   178.51   159.96    15.90 o
  -4  15   8    43.74    60.36    16.44 o
  -3  15   8     2.14    10.08    14.07 <
  -2  15   8    54.07    38.77    13.94 o
  -1  15   8   704.11   752.92    35.39 o
   0  15   8   132.91    76.39    16.10 o
   1  15   8  4138.22  3883.01    84.38 o
   2  15   8   520.05   514.26    31.53 o
  -4  16   8   240.83   240.69    20.57 o
  -3  16   8   143.99   129.65    18.20 o
  -2  16   8   139.20   127.89    18.47 o
  -1  16   8   481.06   488.35    27.00 o
   0  16   8  2111.12  2015.97    58.19 o
   1  16   8    36.66    31.74    15.70 o
  -9   0   9  4810.39  5014.92    93.45 o
  -7   0   9  6715.37  6616.50   107.93 o
  -5   0   9    40.96    29.16    12.72 o
  -3   0   9 11785.50 11509.20   180.60 o
  -1   0   9   175.17   200.76    13.19 o
   1   0   9  1051.12  1081.77    37.35 o
   3   0   9  1783.10  1635.15    83.30 o
   5   0   9  1703.77  1694.62    79.24 o
 -10   1   9   696.52   705.48    26.59 o
  -9   1   9   168.82   184.39    15.16 o
  -8   1   9  6853.99  6946.04    97.98 o
  -7   1   9   541.46   554.86    17.53 o
  -6   1   9   170.39   181.35    11.98 o
  -5   1   9  1344.85  1332.54    24.09 o
  -4   1   9  1769.28  1751.26    27.34 o
  -3   1   9   760.67   784.18    18.88 o
  -2   1   9  2590.97  2492.81    33.43 o
  -1   1   9    10.86    15.02     7.04 o
   0   1   9  1373.98  1397.64    21.45 o
   1   1   9   933.03   917.35    20.91 o
   2   1   9   661.15   694.25    25.10 o
   3   1   9   112.00   108.54    24.97 o
   4   1   9    11.41    21.52    21.65 <
   5   1   9    73.07    75.04    20.57 o
   6   1   9  3152.80  3225.63    93.38 o
 -10   2   9   738.08   696.01    25.71 o
  -9   2   9  4816.15  4863.48    68.61 o
  -8   2   9     0.49     9.41    11.57 <
  -7   2   9  2006.15  2008.26    32.55 o
  -6   2   9     9.19     2.03     9.61 <
  -5   2   9   153.65   149.27    11.10 o
  -4   2   9  5844.97  5811.21    67.80 o
  -3   2   9  9535.83  9314.34   106.64 o
  -2   2   9    59.18    63.81     8.32 o
  -1   2   9    67.18    73.08     8.05 o
   0   2   9  1128.05  1150.52    20.30 o
   1   2   9   392.21   372.70    14.62 o
   2   2   9  1501.23  1540.68    37.22 o
   3   2   9    73.92    95.81    21.25 o
   4   2   9    56.50    43.37    20.50 o
   5   2   9  1043.22  1004.09    44.79 o
   6   2   9   132.92   162.26    25.85 o
 -10   3   9   648.34   699.66    25.85 o
  -9   3   9  1057.63  1106.74    27.74 o
  -8   3   9  2008.13  2165.10    37.22 o
  -7   3   9  1241.28  1185.71    24.56 o
  -6   3   9   129.69   166.05    12.92 o
  -5   3   9  2203.51  2161.52    31.94 o
  -4   3   9  5588.13  5541.83    66.04 o
  -3   3   9  6518.26  6309.37    78.09 o
  -2   3   9  1161.63  1144.23    20.03 o
  -1   3   9   157.36   174.78     9.13 o
   0   3   9   111.82   128.97     8.80 o
   1   3   9  7616.37  7547.31   100.82 o
   2   3   9   220.49   234.66    18.20 o
   3   3   9  1123.14  1135.64    40.06 o
   4   3   9   166.13   170.38    20.16 o
   5   3   9    33.66    56.37    20.50 o
   6   3   9   989.79   995.70    48.04 o
 -10   4   9  1026.94  1013.43    31.33 o
  -9   4   9  1630.45  1625.33    33.70 o
  -8   4   9    70.42    91.55    12.99 o
  -7   4   9  1014.00  1027.98    23.34 o
  -6   4   9    88.28    66.18    11.10 o
  -5   4   9   994.56   939.41    20.37 o
  -4   4   9  5333.84  5198.02    61.78 o
  -3   4   9    67.17    85.33     9.07 o
  -2   4   9   393.54   422.78    12.86 o
  -1   4   9   183.45   202.25     9.47 o
   0   4   9  1231.38  1216.23    21.11 o
   1   4   9    18.80    50.21     9.41 o
   2   4   9  8907.35  8792.10   140.07 o
   3   4   9   121.01   151.77    20.91 o
   4   4   9    46.61    40.73    18.20 o
   5   4   9   759.58   784.38    37.89 o
   6   4   9  2152.21  2101.97    70.64 o
 -10   5   9   787.22   798.05    31.80 o
  -9   5   9  1294.32  1259.06    32.28 o
  -8   5   9   336.87   346.58    17.39 o
  -7   5   9   138.22   125.59    12.52 o
  -6   5   9  1000.28   994.69    22.80 o
  -5   5   9  3736.61  3569.24    46.35 o
  -4   5   9   110.68   123.08    10.01 o
  -3   5   9  5222.78  5033.39    59.82 o
  -2   5   9   318.32   316.54    11.50 o
  -1   5   9   775.82   757.99    16.71 o
   0   5   9   540.00   577.80    14.68 o
   1   5   9  9361.56  9237.20   117.47 o
   2   5   9     7.16    42.02    10.76 o
   3   5   9  1904.30  1863.11    47.30 o
   4   5   9     6.69    11.77    15.36 <
   5   5   9   653.13   726.66    29.57 o
   6   5   9    59.19    99.40    27.74 o
 -10   6   9  1703.56  1696.65    51.09 o
  -9   6   9   137.69   138.65    15.36 o
  -8   6   9     4.50    16.31    11.91 <
  -7   6   9   153.93   154.75    12.86 o
  -6   6   9   510.03   519.47    17.19 o
  -5   6   9   346.86   363.03    14.55 o
  -4   6   9  5461.55  5382.89    62.52 o
  -3   6   9   918.35   925.87    20.03 o
  -2   6   9   506.45   531.24    14.07 o
  -1   6   9   322.93   351.12    11.57 o
   0   6   9  5049.41  4998.61    60.63 o
   1   6   9   340.82   366.61    15.36 o
   2   6   9  6491.52  6393.75   101.36 o
   3   6   9  2024.95  1886.19    48.52 o
   4   6   9   837.31   851.24    35.73 o
   5   6   9    10.79    20.30    16.98 <
   6   6   9  2352.61  2240.76    58.26 o
 -10   7   9    49.19    50.55    17.25 o
  -9   7   9  2095.60  1912.98    41.55 o
  -8   7   9   347.95   374.94    17.80 o
  -7   7   9    14.30    23.41    11.71 <
  -6   7   9   998.78   972.22    23.28 o
  -5   7   9  3615.12  3540.35    46.89 o
  -4   7   9    26.06    34.64     9.27 o
  -3   7   9  4267.87  4227.63    51.70 o
  -2   7   9  1023.45  1019.45    20.64 o
  -1   7   9  5219.02  5114.66    59.55 o
   0   7   9   870.68   921.47    20.77 o
   1   7   9  5596.58  5595.90    77.68 o
   2   7   9    39.46    59.00    12.59 o
   3   7   9  1506.81  1557.47    38.30 o
   4   7   9   879.90   887.37    30.25 o
   5   7   9  1683.91  1674.59    51.70 o
   6   7   9  1007.46   909.16    41.61 o
  -9   8   9   181.11   175.52    17.12 o
  -8   8   9   486.44   499.44    21.04 o
  -7   8   9    87.05    84.38    12.59 o
  -6   8   9  1521.41  1551.85    28.83 o
  -5   8   9   694.07   667.93    18.47 o
  -4   8   9  3592.16  3508.20    44.59 o
  -3   8   9  2134.16  2187.37    33.29 o
  -2   8   9   832.84   852.59    19.83 o
  -1   8   9     2.84    23.75    10.49 o
   0   8   9  4668.13  4521.23    58.26 o
   1   8   9  1103.11  1063.17    23.07 o
   2   8   9  4398.18  4285.35    74.64 o
   3   8   9  1298.44  1338.84    34.58 o
   4   8   9  1234.36  1304.46    39.86 o
   5   8   9   566.01   541.94    38.16 o
  -9   9   9    60.04    76.33    16.58 o
  -8   9   9  2972.70  2818.89    50.01 o
  -7   9   9  1746.89  1599.55    31.74 o
  -6   9   9   181.55   191.70    14.14 o
  -5   9   9  2665.70  2721.99    41.41 o
  -4   9   9   552.60   558.31    16.31 o
  -3   9   9  3113.30  3074.40    42.29 o
  -2   9   9   722.09   722.40    18.27 o
  -1   9   9  2635.01  2715.90    42.09 o
   0   9   9   542.73   546.94    16.17 o
   1   9   9  2505.96  2491.25    42.16 o
   2   9   9   785.20   726.26    25.78 o
   3   9   9  3200.58  3157.90    65.70 o
   4   9   9    87.33   102.18    18.13 o
   5   9   9  1787.63  1740.50    50.61 o
  -9  10   9  1344.91  1285.85    78.63 o
  -8  10   9   567.92   562.24    23.01 o
  -7  10   9   739.97   714.82    23.89 o
  -6  10   9  1051.51  1073.18    25.71 o
  -5  10   9     8.75    27.00    10.89 o
  -4  10   9   698.44   719.15    20.10 o
  -3  10   9  2037.40  2008.73    33.97 o
  -2  10   9  1651.03  1659.71    31.13 o
  -1  10   9   631.80   624.83    17.93 o
   0  10   9  1970.20  1994.65    34.98 o
   1  10   9    64.98    67.46    12.18 o
   2  10   9  1774.07  1636.57    43.85 o
   3  10   9   159.91   166.66    15.43 o
   4  10   9  2728.47  2681.73    85.67 o
  -8  11   9  2555.42  2501.40    56.50 o
  -7  11   9  1106.02  1139.09    30.45 o
  -6  11   9    56.21    70.71    12.92 o
  -5  11   9  1061.33  1119.53    28.56 o
  -4  11   9  1232.83  1195.05    28.01 o
  -3  11   9   163.07   195.22    13.13 o
  -2  11   9  1076.12  1077.38    26.25 o
  -1  11   9  3027.59  2961.06    54.61 o
   0  11   9   230.81   244.75    17.59 o
   1  11   9   661.39   680.38    27.07 o
   2  11   9   276.63   246.91    20.91 o
   3  11   9  3123.78  2997.73    75.18 o
   4  11   9    15.96    25.44    19.56 <
  -7  12   9  1108.86  1022.23    31.67 o
  -6  12   9   622.65   617.59    21.52 o
  -5  12   9   229.43   290.22    17.86 o
  -4  12   9   258.25   235.48    15.97 o
  -3  12   9  1429.44  1415.03    33.16 o
  -2  12   9  1775.23  1798.96    41.82 o
  -1  12   9   423.80   414.32    20.77 o
   0  12   9  2129.35  2070.58    49.87 o
   1  12   9    10.94     5.55    13.74 <
   2  12   9   103.03   120.11    15.50 o
   3  12   9     3.17    24.09    25.85 <
  -7  13   9   949.53   937.85    30.79 o
  -6  13   9  1302.56  1211.76    30.72 o
  -5  13   9     7.58    29.30    13.94 o
  -4  13   9   573.69   543.15    22.26 o
  -3  13   9   139.57   174.04    19.28 o
  -2  13   9   515.09   521.30    25.98 o
  -1  13   9  2782.91  2847.24    60.70 o
   0  13   9    39.03    18.13    12.99 <
   1  13   9   261.86   259.84    20.84 o
   2  13   9    87.05    89.59    16.58 o
   3  13   9   344.12   366.27    30.18 o
  -6  14   9   223.82   158.47    18.13 o
  -5  14   9  1012.80  1092.87    36.61 o
  -4  14   9   499.98   472.78    25.24 o
  -3  14   9   391.52   412.90    25.44 o
  -2  14   9   828.09   802.92    34.10 o
  -1  14   9   548.20   599.66    27.27 o
   0  14   9     4.53    -6.09    14.01 <
   1  14   9   373.52   344.08    27.68 o
   2  14   9   187.02   205.77    23.01 o
  -5  15   9   293.70   313.16    27.81 o
  -4  15   9   814.16   777.55    32.14 o
  -3  15   9     1.82    12.72    19.28 <
  -2  15   9     5.85    -0.47    14.41 <
  -1  15   9   475.24   454.38    27.54 o
   0  15   9   600.31   558.99    30.04 o
   1  15   9   407.67   390.36   102.85 o
 -10   0  10  1215.01  1211.08    49.60 o
  -8   0  10   293.03   340.02    23.01 o
  -6   0  10  9372.24  9410.16   152.32 o
  -4   0  10  5446.56  5236.66    94.94 o
  -2   0  10  1837.38  1714.72    37.22 o
   0   0  10 10208.70  9595.97   164.09 o
   2   0  10  1393.09  1440.81    50.14 o
   4   0  10  1372.21  1306.49   137.36 o
   6   0  10  1946.63  1846.40   119.43 o
 -10   1  10   228.03   258.89    18.68 o
  -9   1  10    73.52   119.84    15.29 o
  -8   1  10     1.50    32.48    12.65 o
  -7   1  10  4637.97  4704.67    61.85 o
  -6   1  10     1.00    18.34    10.15 <
  -5   1  10  7002.21  6895.42    79.85 o
  -4   1  10    92.91   100.89    10.42 o
  -3   1  10    19.30    19.69     8.80 o
  -2   1  10    94.49    87.97     9.13 o
  -1   1  10  4647.47  4590.79    54.74 o
   0   1  10   243.47   253.95    11.44 o
   1   1  10  4934.82  4952.26    75.65 o
   2   1  10    33.30    56.91    13.19 o
   3   1  10   130.18   142.50    26.39 o
   4   1  10   185.33   214.50    40.33 o
   5   1  10  1897.56  1824.20    64.42 o
   6   1  10    29.65    47.03    30.58 <
 -10   2  10   706.52   690.40    25.58 o
  -9   2  10   177.70   185.61    15.90 o
  -8   2  10  1154.78  1147.75    27.00 o
  -7   2  10   207.91   222.21    14.41 o
  -6   2  10  6036.86  5930.71    74.84 o
  -5   2  10   442.62   459.11    15.63 o
  -4   2  10  3820.65  3744.56    48.85 o
  -3   2  10   170.53   182.29    11.03 o
  -2   2  10  2841.12  2750.28    38.77 o
  -1   2  10   660.67   667.46    15.97 o
   0   2  10  6089.52  6088.91    72.33 o
   1   2  10   495.27   482.46    16.65 o
   2   2  10   721.59   729.44    30.58 o
   3   2  10   425.46   436.04    29.71 o
   4   2  10   468.02   491.19    51.83 o
   5   2  10  1390.77  1465.37    63.20 o
 -10   3  10  2089.51  2127.35    50.14 o
  -9   3  10   798.30   815.31    25.65 o
  -8   3  10    71.30    70.85    13.60 o
  -7   3  10  2237.18  2327.98    38.23 o
  -6   3  10     0.96    10.35    10.83 <
  -5   3  10  2705.66  2671.99    37.69 o
  -4   3  10   364.01   368.78    14.55 o
  -3   3  10  1804.59  1832.87    28.49 o
  -2   3  10   805.17   813.48    18.20 o
  -1   3  10  3494.42  3415.84    42.22 o
   0   3  10    68.72    76.26    11.16 o
   1   3  10  2582.30  2523.53    41.01 o
   2   3  10    22.75    31.46    13.94 o
   3   3  10    28.69    49.06    20.71 o
   4   3  10  4327.36  4344.42   143.72 o
   5   3  10   675.06   749.40    47.03 o
 -10   4  10   410.21   410.73    23.62 o
  -9   4  10  2027.59  2005.68    39.31 o
  -8   4  10   752.70   786.41    23.34 o
  -7   4  10   767.81   770.71    21.38 o
  -6   4  10  1151.16  1161.89    25.37 o
  -5   4  10   553.79   549.58    16.44 o
  -4   4  10  2848.50  2773.89    39.65 o
  -3   4  10   164.86   172.55    11.03 o
  -2   4  10  2704.95  2708.19    35.73 o
  -1   4  10  1872.60  1890.38    27.95 o
   0   4  10  1670.41  1699.56    28.83 o
   1   4  10   440.16   438.34    16.38 o
   2   4  10    34.57    39.79    13.87 o
   3   4  10  2454.83  2356.60    72.00 o
   4   4  10   223.62   265.18    22.80 o
   5   4  10  2930.00  2992.52    90.13 o
 -10   5  10  2268.90  2226.55    55.76 o
  -9   5  10  1021.18  1002.54    28.62 o
  -8   5  10   193.66   186.42    14.89 o
  -7   5  10   441.46   477.79    18.07 o
  -6   5  10   126.86   131.00    12.32 o
  -5   5  10   453.93   449.03    15.90 o
  -4   5  10   745.79   754.61    19.62 o
  -3   5  10  1416.45  1386.34    26.59 o
  -2   5  10  2510.45  2492.20    38.23 o
  -1   5  10   746.91   760.43    19.69 o
   0   5  10  1261.35  1243.77    22.67 o
   1   5  10   641.82   649.59    19.62 o
   2   5  10    50.36    63.20    14.55 o
   3   5  10   438.95   481.58    34.24 o
   4   5  10  5758.37  5442.77   118.55 o
   5   5  10   170.92   193.59    29.64 o
  -9   6  10   515.24   530.57    22.33 o
  -8   6  10  1109.03  1075.28    28.56 o
  -7   6  10    12.28     1.42    11.64 <
  -6   6  10     5.14    -5.55    10.42 <
  -5   6  10   738.51   682.88    18.27 o
  -4   6  10     7.54    10.96     9.74 <
  -3   6  10     1.38     6.90     9.41 <
  -2   6  10   416.59   425.28    14.48 o
  -1   6  10  3086.46  2973.64    38.91 o
   0   6  10    72.94    89.32     9.68 o
   1   6  10    15.44    18.27    10.76 <
   2   6  10   466.01   522.65    22.13 o
   3   6  10  1326.81  1375.04    49.40 o
   4   6  10   143.84   185.00    21.31 o
   5   6  10  3127.39  3032.58    77.55 o
  -9   7  10   125.48   141.42    17.59 o
  -8   7  10    10.87    21.45    14.82 <
  -7   7  10    50.94    42.16    13.13 o
  -6   7  10   150.53   132.90    12.99 o
  -5   7  10   588.78   568.19    17.32 o
  -4   7  10   285.30   270.53    13.60 o
  -3   7  10  2018.50  1947.49    30.31 o
  -2   7  10  1018.59  1012.08    21.45 o
  -1   7  10   530.29   547.82    15.22 o
   0   7  10  1129.30  1081.91    22.60 o
   1   7  10    31.55    51.09    12.25 o
   2   7  10   212.24   233.11    18.61 o
   3   7  10   677.10   673.41    27.74 o
   4   7  10  4548.71  4449.44   105.42 o
   5   7  10   426.01   380.21    31.46 o
  -9   8  10   111.74   117.20    17.59 o
  -8   8  10    11.08    38.10    14.28 o
  -7   8  10   225.22   205.98    15.77 o
  -6   8  10  1030.79  1008.76    25.51 o
  -5   8  10   122.63   107.45    12.11 o
  -4   8  10    75.84    81.81    11.03 o
  -3   8  10     9.39     7.24     9.47 <
  -2   8  10   521.56   525.16    15.50 o
  -1   8  10   952.68   963.63    21.38 o
   0   8  10  2996.14  2977.16    49.13 o
   1   8  10   339.44   352.61    19.49 o
   2   8  10   781.93   689.45    28.15 o
   3   8  10   724.80   733.36    33.63 o
   4   8  10     6.61    27.88    20.71 <
  -8   9  10   433.08   424.20    21.59 o
  -7   9  10   371.53   372.50    19.42 o
  -6   9  10    53.08    63.94    12.25 o
  -5   9  10  2067.60  1992.08    35.25 o
  -4   9  10    28.78    49.40    12.11 o
  -3   9  10   239.49   221.00    14.14 o
  -2   9  10    21.38    21.25    10.62 <
  -1   9  10  1047.50  1070.54    26.39 o
   0   9  10   346.81   367.63    16.92 o
   1   9  10  1106.54  1062.69    34.37 o
   2   9  10  2263.38  2192.92    53.79 o
   3   9  10    16.75    36.34    15.22 o
   4   9  10  1127.51  1052.14    37.55 o
  -8  10  10    34.26    60.97    16.44 o
  -7  10  10   441.20   419.19    21.04 o
  -6  10  10  1261.29  1285.18    31.06 o
  -5  10  10     1.79    12.65    11.84 <
  -4  10  10   210.64   218.22    14.75 o
  -3  10  10   261.23   268.30    16.17 o
  -2  10  10   211.07   227.02    14.95 o
  -1  10  10     1.64     0.95    10.89 <
   0  10  10  3062.12  2917.89    53.39 o
   1  10  10  2028.80  2005.68    46.89 o
   2  10  10    12.27    19.08    13.74 <
   3  10  10   184.32   218.36    20.84 o
  -7  11  10  1519.70  1494.47    40.33 o
  -6  11  10   128.22   109.89    14.28 o
  -5  11  10  1303.91  1255.13    29.43 o
  -4  11  10   888.63   925.06    28.62 o
  -3  11  10   503.42   522.38    21.52 o
  -2  11  10   280.87   287.65    18.27 o
  -1  11  10  1945.04  1971.72    46.01 o
   0  11  10   373.69   345.98    21.25 o
   1  11  10  1979.00  1981.73    46.35 o
   2  11  10  2657.81  2771.05    73.55 o
   3  11  10     4.00    12.99    16.38 <
  -7  12  10   648.72   633.55    30.79 o
  -6  12  10  2278.47  2365.33    47.77 o
  -5  12  10   166.97   209.90    21.31 o
  -4  12  10  1565.99  1559.56    37.28 o
  -3  12  10     4.18     2.30    12.65 <
  -2  12  10  1848.05  1906.55    47.70 o
  -1  12  10     9.34     3.65    13.87 <
   0  12  10  1398.83  1392.97    40.26 o
   1  12  10  3045.32  2978.72    68.27 o
   2  12  10   783.65   786.89    40.46 o
  -6  13  10    18.13    62.86    15.22 o
  -5  13  10  1269.70  1236.73    37.42 o
  -4  13  10   283.40   241.50    18.47 o
  -3  13  10  2127.89  2231.28    54.81 o
  -2  13  10   349.39   313.23    24.02 o
  -1  13  10  1425.08  1450.89    42.02 o
   0  13  10   339.89   347.40    23.75 o
   1  13  10  1217.47  1143.96    46.08 o
  -4  14  10  2930.68  3019.39    67.67 o
  -3  14  10     6.62    56.37    17.19 o
  -2  14  10  3345.74  3263.66    76.06 o
  -1  14  10    15.10    25.31    15.97 <
   0  14  10   718.36   680.92    32.21 o
  -9   0  11   330.88   334.00    27.07 o
  -7   0  11     2.57     1.29    16.31 <
  -5   0  11   791.56   759.01    28.89 o
  -3   0  11  6546.95  6271.95   107.59 o
  -1   0  11   249.10   286.02    16.44 o
   1   0  11  5458.85  5448.86   126.54 o
   3   0  11 11598.30 11704.40   690.12 o
  -9   1  11   200.14   197.25    16.78 o
  -8   1  11  1141.82  1121.22    28.76 o
  -7   1  11   318.97   301.38    16.44 o
  -6   1  11    13.63    21.31    11.64 <
  -5   1  11     1.64     3.38    10.49 <
  -4   1  11  1797.63  1775.96    35.52 o
  -3   1  11   637.46   668.34    19.89 o
  -2   1  11  3266.52  3182.60    43.31 o
  -1   1  11   678.47   703.12    17.73 o
   0   1  11   178.23   228.24    12.04 o
   1   1  11   126.39   161.59    16.51 o
   2   1  11  8186.67  7764.86   162.60 o
   3   1  11     2.41   -10.49    38.77 <
   4   1  11   641.38   702.64    77.07 o
  -9   2  11   418.20   421.63    20.57 o
  -8   2  11   702.08   702.78    23.68 o
  -7   2  11     7.82    16.98    12.45 <
  -6   2  11   287.11   271.14    15.50 o
  -5   2  11   334.56   346.65    16.17 o
  -4   2  11     4.48     5.01    10.49 <
  -3   2  11  4768.68  4522.25    61.78 o
  -2   2  11  1744.03  1731.70    28.35 o
  -1   2  11   516.32   540.11    15.16 o
   0   2  11    29.05    52.31     9.95 o
   1   2  11  4429.37  4242.24    73.89 o
   2   2  11   399.80   398.89    23.21 o
   3   2  11  3453.15  3480.06   119.97 o
   4   2  11   241.19   232.77    53.32 o
  -9   3  11   635.71   607.91    22.67 o
  -8   3  11   874.65   780.19    23.55 o
  -7   3  11  2581.53  2635.79    46.28 o
  -6   3  11    34.20    26.52    11.64 o
  -5   3  11   102.67    94.87    11.44 o
  -4   3  11  2100.04  2072.81    36.47 o
  -3   3  11  2556.66  2556.75    40.94 o
  -2   3  11  1867.43  1803.57    28.89 o
  -1   3  11  1565.69  1520.66    26.39 o
   0   3  11   455.79   487.19    15.63 o
   1   3  11  1016.53   982.17    27.61 o
   2   3  11  2459.41  2489.70    80.45 o
   3   3  11   797.01   785.13    43.78 o
   4   3  11   835.32   932.37    72.06 o
  -9   4  11   230.46   188.11    16.85 o
  -8   4  11  2941.77  2940.89    49.73 o
  -7   4  11   138.91   144.06    13.60 o
  -6   4  11  1495.04  1409.34    30.38 o
  -5   4  11     2.75     4.60    11.16 <
  -4   4  11   561.76   481.78    16.38 o
  -3   4  11  1458.53  1366.72    26.46 o
  -2   4  11  3767.54  3738.95    49.19 o
  -1   4  11   705.75   715.03    17.53 o
   0   4  11    61.63    60.22    10.62 o
   1   4  11   845.24   932.84    28.69 o
   2   4  11     5.05    49.73    21.25 o
   3   4  11   723.24   733.57    40.46 o
   4   4  11   652.65   724.16    42.70 o
  -9   5  11   760.47   702.98    26.86 o
  -8   5  11    25.03    53.46    14.95 o
  -7   5  11  3907.79  3849.71    63.27 o
  -6   5  11   241.93   238.18    15.29 o
  -5   5  11    14.39     2.77    10.83 <
  -4   5  11   607.10   575.23    17.86 o
  -3   5  11  3286.96  3308.79    47.57 o
  -2   5  11   613.95   606.42    16.51 o
  -1   5  11  2591.14  2496.87    36.40 o
   0   5  11  1039.72  1012.08    25.78 o
   1   5  11   616.29   601.96    22.53 o
   2   5  11   132.89   168.42    18.07 o
   3   5  11   481.23   532.33    41.21 o
   4   5  11   783.80   787.97    42.36 o
  -9   6  11  1005.45   889.81    30.58 o
  -8   6  11  3496.27  3485.54    65.30 o
  -7   6  11   183.87   213.69    18.81 o
  -6   6  11  1462.53  1405.08    33.36 o
  -5   6  11   790.28   691.54    20.98 o
  -4   6  11   173.69   172.55    14.62 o
  -3   6  11    32.95    42.90    10.56 o
  -2   6  11  4537.01  4473.80    66.31 o
  -1   6  11   610.24   643.03    19.49 o
   0   6  11     1.85     4.80    10.69 <
   1   6  11    24.43    32.55    13.60 o
   2   6  11    32.47    52.10    15.90 o
   3   6  11   168.83   239.54    25.71 o
   4   6  11   440.33   436.11    29.37 o
  -8   7  11   388.91   341.85    21.65 o
  -7   7  11  3803.81  3724.87    64.49 o
  -6   7  11   503.95   442.40    18.95 o
  -5   7  11  1147.97  1180.63    29.03 o
  -4   7  11    67.08    83.36    12.11 o
  -3   7  11  2546.86  2523.26    44.52 o
  -2   7  11     8.08    26.46    10.62 o
  -1   7  11   897.65   881.75    23.48 o
   0   7  11  1212.34  1143.42    27.95 o
   1   7  11    60.98    37.55    13.33 o
   2   7  11   703.22   804.07    34.10 o
   3   7  11   206.32   198.87    29.64 o
  -8   8  11  2720.40  2546.88    55.35 o
  -7   8  11    80.90    80.12    15.22 o
  -6   8  11  2046.75  1975.30    42.43 o
  -5   8  11   206.60   206.99    17.32 o
  -4   8  11   840.83   876.68    26.39 o
  -3   8  11  1363.62  1340.73    32.75 o
  -2   8  11  1986.75  2011.37    40.87 o
  -1   8  11   296.94   318.30    16.38 o
   0   8  11   307.46   317.96    17.39 o
   1   8  11    10.67     6.70    14.48 <
   2   8  11     0.07    13.94    18.54 <
   3   8  11   211.72   213.01    20.44 o
  -8   9  11   388.29   369.79    73.21 o
  -7   9  11  1614.90  1599.96    39.58 o
  -6   9  11   557.58   503.77    22.60 o
  -5   9  11  2380.56  2347.73    46.01 o
  -4   9  11  1040.09  1051.93    29.10 o
  -3   9  11   546.60   560.00    21.59 o
  -2   9  11   573.49   579.02    21.52 o
  -1   9  11  1139.61  1061.95    29.03 o
   0   9  11   117.01   124.10    15.70 o
   1   9  11   235.47   240.08    20.16 o
   2   9  11  2419.60  2357.82    66.85 o
   3   9  11    41.75   -19.83    32.95 <
  -7  10  11    83.15    36.54    19.28 <
  -6  10  11  1583.98  1583.52    39.25 o
  -5  10  11     4.61    30.04    13.53 o
  -4  10  11  1013.08  1050.04    30.99 o
  -3  10  11  1643.51  1710.73    41.28 o
  -2  10  11    41.83    44.39    12.59 o
  -1  10  11    30.18    49.87    12.65 o
   0  10  11   335.91   354.23    19.69 o
   1  10  11   711.77   692.36    33.36 o
   2  10  11   348.39   311.94    20.30 o
  -6  11  11     7.94    21.92    15.90 <
  -5  11  11  2497.08  2431.57    48.18 o
  -4  11  11  1174.63  1280.04    38.70 o
  -3  11  11   371.03   397.74    21.86 o
  -2  11  11   824.98   820.04    29.43 o
  -1  11  11    15.56    26.25    14.35 <
   0  11  11   248.65   266.87    23.62 o
   1  11  11   405.48   425.62    30.58 o
  -5  12  11   252.31   226.27    20.37 o
  -4  12  11   814.08   783.77    30.18 o
  -3  12  11  1602.61  1627.43    47.03 o
  -2  12  11   334.16   335.96    23.21 o
  -1  12  11   300.90   305.98    25.44 o
   0  12  11   148.68   125.18    24.02 o
  -4  13  11   772.43   713.47    66.79 o
  -3  13  11   147.58   102.11    19.35 o
  -2  13  11  1030.48  1072.64    42.97 o
  -1  13  11    23.21    -7.78    30.18 <
  -8   0  12  2102.72  1916.97    65.37 o
  -6   0  12   275.92   248.74    26.25 o
  -4   0  12  2924.51  2845.62    70.51 o
  -2   0  12   566.20   497.07    25.65 o
   0   0  12  1773.96  1706.67    51.36 o
   2   0  12   184.86   178.64    32.14 o
  -9   1  12  2904.72  3027.84    68.95 o
  -8   1  12     3.16    -1.56    14.48 <
  -7   1  12     3.12    -2.17    13.13 <
  -6   1  12   277.54   278.31    18.95 o
  -5   1  12    83.04    99.47    14.48 o
  -4   1  12   485.98   485.37    21.52 o
  -3   1  12   211.30   171.26    14.55 o
  -2   1  12     1.91     3.52    10.89 <
  -1   1  12  1304.78  1250.06    27.07 o
   0   1  12   269.87   288.12    16.85 o
   1   1  12     3.59    14.95    16.04 <
   2   1  12    51.71    90.88    21.11 o
   3   1  12   235.03   252.73    60.83 o
  -9   2  12    54.78    67.40    16.98 o
  -8   2  12   615.03   642.96    28.69 o
  -7   2  12   123.69   100.69    15.36 o
  -6   2  12   121.79   119.77    16.10 o
  -5   2  12  1349.75  1310.08    33.77 o
  -4   2  12  1630.03  1592.31    38.16 o
  -3   2  12    10.40    -0.88    11.44 <
  -2   2  12     2.92     0.27    10.76 <
  -1   2  12   271.18   286.77    14.48 o
   0   2  12  1193.18  1192.07    28.56 o
   1   2  12   905.01  1018.51    40.53 o
   2   2  12    82.45    79.98    25.37 o
   3   2  12    20.86     8.80    40.33 <
  -8   3  12   100.98    95.21    16.38 o
  -7   3  12    59.34    18.88    14.21 <
  -6   3  12  1000.19   955.71    31.94 o
  -5   3  12   595.41   617.32    24.90 o
  -4   3  12  4281.45  4228.98    69.43 o
  -3   3  12    16.55    26.59    11.23 o
  -2   3  12    25.97    25.17    11.30 o
  -1   3  12   233.29   246.57    15.50 o
   0   3  12  2898.04  2844.33    49.13 o
   1   3  12   418.66   462.29    23.75 o
   2   3  12   437.64   522.65    39.04 o
   3   3  12   110.14   134.32    33.56 o
  -8   4  12    43.69    55.01    16.17 o
  -7   4  12   137.85   124.57    16.04 o
  -6   4  12   405.62   379.74    23.07 o
  -5   4  12  4815.52  4719.83    76.46 o
  -4   4  12   316.18   319.38    18.74 o
  -3   4  12   290.60   301.72    18.20 o
  -2   4  12     6.68     9.00    11.03 <
  -1   4  12   795.41   849.34    25.58 o
   0   4  12    27.33    61.03    13.53 o
   1   4  12  3101.90  3044.35    61.31 o
   2   4  12     6.90   -13.19    28.49 <
   3   4  12    56.18    90.33    28.42 o
  -8   5  12     4.23    24.29    15.97 <
  -7   5  12   190.25   172.68    18.00 o
  -6   5  12  2858.32  2828.77    61.51 o
  -5   5  12    43.85    46.82    13.26 o
  -4   5  12  2997.91  3036.57    54.00 o
  -3   5  12   116.51   135.13    14.55 o
  -2   5  12   241.97   255.91    15.90 o
  -1   5  12    11.11    19.22    11.44 <
   0   5  12  4180.87  4177.76    64.01 o
   1   5  12    66.27    83.03    17.05 o
   2   5  12  1860.92  1813.38    76.60 o
   3   5  12   800.37   771.19    60.29 o
  -8   6  12    14.03    26.12    16.44 <
  -7   6  12   674.49   708.60    30.11 o
  -6   6  12   177.16   164.23    18.88 o
  -5   6  12  2709.18  2789.66    53.52 o
  -4   6  12   140.80   176.68    17.59 o
  -3   6  12  2653.99  2591.26    50.88 o
  -2   6  12     0.14    19.35    11.44 <
  -1   6  12  2223.93  2211.73    41.68 o
   0   6  12   297.76   296.58    16.24 o
   1   6  12  2384.07  2426.23    54.81 o
   2   6  12   551.93   512.09    31.19 o
  -7   7  12   184.87   177.01    21.11 o
  -6   7  12  1802.01  1839.23    46.22 o
  -5   7  12   120.85    85.06    14.28 o
  -4   7  12  1662.11  1728.12    41.28 o
  -3   7  12   381.20   390.70    19.96 o
  -2   7  12  2324.54  2323.10    46.42 o
  -1   7  12   266.10   259.30    16.17 o
   0   7  12  2554.56  2513.65    51.22 o
   1   7  12    86.99   122.81    19.15 o
   2   7  12  1151.44  1158.17    41.41 o
  -7   8  12  1544.51  1504.75    42.02 o
  -6   8  12    90.91    58.53    15.36 o
  -5   8  12  2665.04  2669.35    51.70 o
  -4   8  12   904.94   932.64    30.11 o
  -3   8  12  1185.74  1291.88    34.92 o
  -2   8  12   207.99   220.46    16.38 o
  -1   8  12  2542.65  2548.91    48.18 o
   0   8  12   339.60   378.18    19.69 o
   1   8  12  1749.23  1637.65    50.21 o
  -6   9  12  2469.03  2364.65    53.46 o
  -5   9  12    12.18    37.55    14.68 o
  -4   9  12   942.23   999.90    31.13 o
  -3   9  12    82.26    63.27    12.86 o
  -2   9  12   742.71   808.07    28.35 o
  -1   9  12   287.93   294.48    19.62 o
   0   9  12  2115.70  1999.93    51.43 o
   1   9  12    22.39    25.24    18.41 <
  -5  10  12   766.98   782.15    28.76 o
  -4  10  12   490.99   485.30    25.92 o
  -3  10  12  1215.26  1198.63    37.69 o
  -2  10  12   116.19   107.86    17.25 o
  -1  10  12  1613.75  1722.43    52.17 o
   0  10  12   220.96   266.54    19.62 o
  -4  11  12   251.49   245.22    22.40 o
  -3  11  12   172.78   182.49    19.96 o
  -2  11  12  2223.14  2290.35    56.37 o
  -1  11  12   107.08   114.69    20.77 o
  -7   0  13  3937.56  4198.53   133.84 o
  -5   0  13  1196.23  1267.92    56.64 o
  -3   0  13   805.94   854.08    43.98 o
  -1   0  13  2711.19  2845.96    81.67 o
   1   0  13   223.50   240.21    41.21 o
  -8   1  13  2030.68  2053.12    61.51 o
  -7   1  13    15.62    20.23    17.25 <
  -6   1  13  3742.26  3709.98    79.64 o
  -5   1  13     2.49     7.98    14.35 <
  -4   1  13    74.26   114.42    16.85 o
  -3   1  13     7.02     5.01    12.45 <
  -2   1  13  1727.27  1783.47    42.36 o
  -1   1  13   129.75   160.37    14.75 o
   0   1  13  1773.96  1752.75    39.79 o
   1   1  13    79.72   112.06    25.37 o
   2   1  13    11.44    -5.55    21.18 <
  -7   2  13  2340.46  2470.35    63.81 o
  -6   2  13    11.01    47.43    15.83 o
  -5   2  13  1576.82  1631.09    45.81 o
  -4   2  13    23.21    23.34    15.09 <
  -3   2  13   264.69   284.40    20.77 o
  -2   2  13   299.74   307.34    17.80 o
  -1   2  13  2418.51  2343.13    45.61 o
   0   2  13    10.45     3.32    14.07 <
   1   2  13   320.88   344.35    35.25 o
   2   2  13   353.80   370.94    38.91 o
  -7   3  13   114.12    90.54    17.19 o
  -6   3  13  1146.70  1178.06    37.22 o
  -5   3  13    21.89    45.00    15.56 o
  -4   3  13   657.36   706.57    29.91 o
  -3   3  13   646.06   684.51    28.76 o
  -2   3  13  1357.45  1296.14    34.85 o
  -1   3  13   466.95   475.62    20.91 o
   0   3  13   561.31   589.44    25.85 o
   1   3  13    77.91   111.92    24.50 o
  -7   4  13   598.98   632.47    29.30 o
  -6   4  13    11.23    22.13    14.68 <
  -5   4  13  1497.14  1438.78    41.21 o
  -4   4  13   467.21   478.67    26.93 o
  -3   4  13   442.46   430.22    23.21 o
  -2   4  13  1299.49  1313.19    37.08 o
  -1   4  13   375.34   380.82    20.98 o
   0   4  13     7.23    -1.22    16.04 <
   1   4  13    67.15   121.93    24.43 o
  -7   5  13    11.18    25.85    16.31 <
  -6   5  13   166.76   128.29    18.07 o
  -5   5  13     7.96    12.92    14.21 <
  -4   5  13   760.13   781.27    31.67 o
  -3   5  13  1802.49  1807.29    45.00 o
  -2   5  13   207.57   241.30    17.59 o
  -1   5  13  1171.79  1260.61    35.93 o
   0   5  13     5.29    27.27    22.87 <
   1   5  13     6.97    57.25    17.86 o
  -6   6  13    71.71    92.50    18.27 o
  -5   6  13    38.71    38.77    15.83 o
  -4   6  13   395.14   426.30    22.87 o
  -3   6  13   182.75   201.91    18.74 o
  -2   6  13  3350.45  3217.51    61.31 o
  -1   6  13    14.24    13.06    14.82 <
   0   6  13    72.38    70.03    18.20 o
  -6   7  13   292.39   276.42    24.56 o
  -5   7  13   270.23   207.80    20.84 o
  -4   7  13   862.99   859.49    33.09 o
  -3   7  13   332.36   359.04    22.87 o
  -2   7  13    35.72    72.47    15.97 o
  -1   7  13  1700.67  1601.18    47.98 o
   0   7  13    76.58    42.49    16.31 o
  -5   8  13    42.48    37.76    16.78 o
  -4   8  13   678.53   680.99    30.45 o
  -3   8  13   253.69   246.64    20.30 o
  -2   8  13  1218.35  1245.66    36.47 o
  -1   8  13   741.64   725.92    26.32 o
  -4   9  13    68.27    69.15    32.95 o
  -3   9  13   176.24   192.44    20.10 o
  -2   9  13   429.92   497.82    53.59 o
  -6   0  14   298.37   247.18    31.67 o
  -4   0  14  3267.82  3255.07    99.33 o
  -2   0  14   906.78   874.58    45.34 o
   0   0  14  1973.88  1974.49   109.28 o
  -6   1  14     0.69    -9.54    19.62 <
  -5   1  14  1978.14  2053.93    55.42 o
  -4   1  14    10.15    36.81    16.10 o
  -3   1  14  2353.78  2295.77    56.16 o
  -2   1  14   161.04   130.46    17.25 o
  -1   1  14   398.21   435.84    22.94 o
   0   1  14   126.64   169.84    60.43 o
  -6   2  14   207.80   264.78    25.98 o
  -5   2  14    44.78    42.83    17.12 o
  -4   2  14  2093.55  2179.79    53.79 o
  -3   2  14   857.91   848.19    36.20 o
  -2   2  14   470.01   477.59    25.37 o
  -1   2  14     0.63     5.48    14.62 <
  -5   3  14  1247.44  1293.50    43.78 o
  -4   3  14   260.35   300.10    25.17 o
  -3   3  14  1326.65  1395.74    47.43 o
  -2   3  14   260.62   201.24    22.13 o
  -1   3  14   362.74   396.18    22.33 o
  -5   4  14    69.90    75.85    18.27 o
  -4   4  14   508.57   541.80    30.45 o
  -3   4  14  1166.15  1171.30    40.94 o
  -2   4  14   392.54   410.19    25.31 o
  -1   4  14     9.42    61.64    25.31 o
  -4   5  14   643.41   651.42    30.52 o
  -3   5  14   552.95   522.85    27.40 o
  -2   5  14   274.56   203.67    18.68 o
